@<TRIPOS>MOLECULE
CHEMBL402792
   56    60     0     0     0
SMALL
USER_CHARGES

@<TRIPOS>ATOM
      1 C1          0.7409    0.0140    1.3766 C.3       1 <0>         0.0962
      2 N1         -0.1059   -0.2239    0.2050 N.pl3     1 <0>        -0.3650
      3 C2          0.0778   -1.1873   -0.7196 C.2       1 <0>         0.0910
      4 C3         -0.9240   -1.0706   -1.6418 C.2       1 <0>        -0.1781
      5 C4         -1.7392    0.0104   -1.2475 C.2       1 <0>         0.0850
      6 N2         -1.2483    0.5066   -0.1433 N.2       1 <0>        -0.2881
      7 C5         -1.1174   -1.9224   -2.8363 C.2       1 <0>         0.0022
      8 C6         -2.0878   -1.8456   -3.7821 C.2       1 <0>        -0.1636
      9 C7         -2.0995   -2.7581   -4.8540 C.ar      1 <0>         0.1707
     10 C8         -1.0569   -3.7101   -4.8474 C.ar      1 <0>        -0.2111
     11 S1         -0.1277   -3.2993   -3.3929 S.3       1 <0>         0.0872
     12 C9         -0.9386   -4.6697   -5.8355 C.ar      1 <0>         0.2134
     13 C10        -1.8881   -4.6765   -6.8561 C.ar      1 <0>        -0.2403
     14 C11        -2.8942   -3.7261   -6.8256 C.ar      1 <0>         0.1611
     15 N3         -2.9819   -2.8279   -5.8771 N.ar      1 <0>        -0.4809
     16 O1          0.0710   -5.5769   -5.8128 O.3       1 <0>        -0.2388
     17 C12         0.0695   -6.5576   -6.7550 C.ar      1 <0>         0.0543
     18 C13        -0.3630   -7.8337   -6.4268 C.ar      1 <0>        -0.0810
     19 C14        -0.3649   -8.8303   -7.3829 C.ar      1 <0>        -0.0633
     20 C15         0.0667   -8.5556   -8.6739 C.ar      1 <0>         0.1557
     21 C16         0.4999   -7.2783   -9.0037 C.ar      1 <0>        -0.1432
     22 C17         0.4959   -6.2794   -8.0477 C.ar      1 <0>         0.0970
     23 F1          0.9116   -5.0348   -8.3691 F         1 <0>        -0.1214
     24 N4          0.0654   -9.5667   -9.6429 N.pl3     1 <0>        -0.6250
     25 C18        -1.0109  -10.3660   -9.7814 C.2       1 <0>         0.5082
     26 S2         -2.3291  -10.2220   -8.6985 S.2       1 <0>        -0.4741
     27 N5         -1.0496  -11.2785  -10.7725 N.am      1 <0>        -0.6415
     28 C19        -2.1259  -12.0778  -10.9110 C.2       1 <0>         0.4828
     29 O2         -3.0594  -11.9758  -10.1441 O.2       1 <0>        -0.3889
     30 C20        -2.1691  -13.0981  -12.0192 C.3       1 <0>        -0.0933
     31 C21        -3.4702  -13.8557  -11.9540 C.ar      1 <0>        -0.0802
     32 C22        -3.5619  -15.0078  -11.1956 C.ar      1 <0>        -0.1013
     33 C23        -4.7554  -15.7028  -11.1357 C.ar      1 <0>        -0.1183
     34 C24        -5.8573  -15.2454  -11.8340 C.ar      1 <0>        -0.1130
     35 C25        -5.7658  -14.0928  -12.5917 C.ar      1 <0>        -0.1181
     36 C26        -4.5735  -13.3955  -12.6480 C.ar      1 <0>        -0.1012
     37 H1          0.3703   -0.5719    2.2177 H         1 <0>         0.0814
     38 H2          1.7652   -0.2823    1.1507 H         1 <0>         0.0925
     39 H3          0.7172    1.0731    1.6330 H         1 <0>         0.0951
     40 H4          0.8727   -1.9183   -0.7300 H         1 <0>         0.1825
     41 H5         -2.6184    0.3637   -1.7657 H         1 <0>         0.1932
     42 H6         -2.8511   -1.0848   -3.7121 H         1 <0>         0.1492
     43 H7         -1.8398   -5.4054   -7.6516 H         1 <0>         0.1466
     44 H8         -3.6332   -3.7250   -7.6132 H         1 <0>         0.1661
     45 H9         -0.6981   -8.0484   -5.4228 H         1 <0>         0.1525
     46 H10        -0.7019   -9.8238   -7.1264 H         1 <0>         0.1627
     47 H11         0.8360   -7.0642  -10.0075 H         1 <0>         0.1488
     48 H12         0.8391   -9.6918  -10.2143 H         1 <0>         0.4120
     49 H13        -0.3028  -11.3601  -11.3861 H         1 <0>         0.4125
     50 H14        -2.0908  -12.5927  -12.9817 H         1 <0>         0.1092
     51 H15        -1.3376  -13.7936  -11.9053 H         1 <0>         0.1092
     52 H16        -2.7010  -15.3652  -10.6501 H         1 <0>         0.1202
     53 H17        -4.8268  -16.6033  -10.5438 H         1 <0>         0.1238
     54 H18        -6.7895  -15.7888  -11.7878 H         1 <0>         0.1232
     55 H19        -6.6266  -13.7357  -13.1374 H         1 <0>         0.1238
     56 H20        -4.5031  -12.4930  -13.2370 H         1 <0>         0.1202
@<TRIPOS>BOND
     1    1    2 1
     2    1   37 1
     3    1   38 1
     4    1   39 1
     5    2    6 1
     6    2    3 1
     7    3    4 2
     8    3   40 1
     9    4    5 1
    10    4    7 1
    11    5    6 2
    12    5   41 1
    13    7   11 1
    14    7    8 2
    15    8    9 1
    16    8   42 1
    17    9   15 ar
    18    9   10 ar
    19   10   11 1
    20   10   12 ar
    21   12   13 ar
    22   12   16 1
    23   13   14 ar
    24   13   43 1
    25   14   15 ar
    26   14   44 1
    27   16   17 1
    28   17   22 ar
    29   17   18 ar
    30   18   19 ar
    31   18   45 1
    32   19   20 ar
    33   19   46 1
    34   20   21 ar
    35   20   24 1
    36   21   22 ar
    37   21   47 1
    38   22   23 1
    39   24   25 1
    40   24   48 1
    41   25   26 2
    42   25   27 1
    43   27   28 am
    44   27   49 1
    45   28   29 2
    46   28   30 1
    47   30   31 1
    48   30   50 1
    49   30   51 1
    50   31   36 ar
    51   31   32 ar
    52   32   33 ar
    53   32   52 1
    54   33   34 ar
    55   33   53 1
    56   34   35 ar
    57   34   54 1
    58   35   36 ar
    59   35   55 1
    60   36   56 1
@<TRIPOS>MOLECULE
CHEMBL518516
   54    57     0     0     0
SMALL
USER_CHARGES

@<TRIPOS>ATOM
      1 C1          0.2965    1.4468    0.1628 C.3       1 <0>        -0.0475
      2 N1          0.1550   -0.0128    0.0763 N.4       1 <0>        -0.3848
      3 C2         -1.2590   -0.3759    0.2340 C.3       1 <0>        -0.0227
      4 C3         -1.4235   -1.8856    0.0300 C.3       1 <0>         0.0993
      5 N2         -0.5114   -2.5826    0.9500 N.pl3     1 <0>        -0.6175
      6 C4          0.8995   -2.1668    0.9747 C.3       1 <0>         0.1030
      7 C5          0.9543   -0.6438    1.1342 C.3       1 <0>        -0.0226
      8 C6         -0.9691   -3.6034    1.7717 C.ar      1 <0>         0.3602
      9 C7         -2.2570   -4.1312    1.5771 C.ar      1 <0>         0.0611
     10 N3         -2.7062   -5.0954    2.3440 N.ar      1 <0>        -0.3801
     11 C8         -1.9329   -5.5843    3.3225 C.ar      1 <0>         0.0794
     12 C9         -2.3922   -6.6177    4.1567 C.ar      1 <0>        -0.0735
     13 C10        -1.5919   -7.1017    5.1461 C.ar      1 <0>        -0.1101
     14 C11        -0.3142   -6.5895    5.3509 C.ar      1 <0>        -0.1580
     15 C12         0.1734   -5.5759    4.5546 C.ar      1 <0>         0.2453
     16 C13        -0.6350   -5.0548    3.5207 C.ar      1 <0>         0.1062
     17 N4         -0.1900   -4.0748    2.7265 N.ar      1 <0>        -0.4872
     18 N5          1.4549   -5.0694    4.7678 N.pl3     1 <0>        -0.7194
     19 C14         2.2888   -5.6148    5.8418 C.3       1 <0>         0.1584
     20 C15         3.6156   -4.9004    5.8595 C.ar      1 <0>        -0.1096
     21 C16         4.6694   -5.3807    5.1044 C.ar      1 <0>        -0.0480
     22 C17         5.8863   -4.7256    5.1206 C.ar      1 <0>        -0.1149
     23 C18         6.0496   -3.5896    5.8917 C.ar      1 <0>        -0.0447
     24 C19         4.9958   -3.1090    6.6458 C.ar      1 <0>        -0.0492
     25 C20         3.7773   -3.7619    6.6263 C.ar      1 <0>        -0.0370
     26 N6          5.1708   -1.8931    7.4717 N.pl3     1 <0>         0.0291
     27 O1          6.2355   -1.3205    7.4866 O.2       1 <0>        -0.1489
     28 O2          4.2491   -1.4727    8.1315 O.3       1 <0>        -0.1539
     29 C21        -2.0978   -8.2095    6.0338 C.3       1 <0>         0.5086
     30 F1         -3.3953   -8.5616    5.6467 F         1 <0>        -0.1710
     31 F2         -1.2579   -9.3220    5.9159 F         1 <0>        -0.1706
     32 F3         -2.1100   -7.7731    7.3630 F         1 <0>        -0.1705
     33 H1          1.3447    1.7183    0.0379 H         1 <0>         0.1261
     34 H2         -0.2965    1.9165   -0.6220 H         1 <0>         0.1271
     35 H3         -0.0539    1.7887    1.1367 H         1 <0>         0.1223
     36 H4         -1.5941   -0.1059    1.2355 H         1 <0>         0.1342
     37 H5         -1.8560    0.1579   -0.5054 H         1 <0>         0.1476
     38 H6         -2.4522   -2.1744    0.2454 H         1 <0>         0.1302
     39 H7         -1.1748   -2.1454   -0.9990 H         1 <0>         0.1008
     40 H8          1.4066   -2.6415    1.8147 H         1 <0>         0.1339
     41 H9          1.3827   -2.4549    0.0411 H         1 <0>         0.0921
     42 H10         1.9883   -0.3074    1.0580 H         1 <0>         0.1428
     43 H11         0.5523   -0.3657    2.1084 H         1 <0>         0.1328
     44 H12        -2.8826   -3.7389    0.7889 H         1 <0>         0.1751
     45 H13        -3.3809   -7.0280    4.0131 H         1 <0>         0.1566
     46 H14         0.3016   -6.9903    6.1425 H         1 <0>         0.1465
     47 H15         1.7942   -4.3560    4.2050 H         1 <0>         0.4097
     48 H16         1.7870   -5.4730    6.7990 H         1 <0>         0.0859
     49 H17         2.4513   -6.6789    5.6708 H         1 <0>         0.0883
     50 H18         4.5419   -6.2680    4.5021 H         1 <0>         0.1467
     51 H19         6.7097   -5.1012    4.5313 H         1 <0>         0.1534
     52 H20         7.0007   -3.0781    5.9049 H         1 <0>         0.1580
     53 H21         2.9528   -3.3842    7.2127 H         1 <0>         0.1552
     54 H22         0.4823   -0.3284   -0.8244 H         1 <0>         0.4259
@<TRIPOS>BOND
     1    1    2 1
     2    1   33 1
     3    1   34 1
     4    1   35 1
     5    2    7 1
     6    2    3 1
     7    2   54 1
     8    3    4 1
     9    3   36 1
    10    3   37 1
    11    4    5 1
    12    4   38 1
    13    4   39 1
    14    5    6 1
    15    5    8 1
    16    6    7 1
    17    6   40 1
    18    6   41 1
    19    7   42 1
    20    7   43 1
    21    8   17 ar
    22    8    9 ar
    23    9   10 ar
    24    9   44 1
    25   10   11 ar
    26   11   16 ar
    27   11   12 ar
    28   12   13 ar
    29   12   45 1
    30   13   14 ar
    31   13   29 1
    32   14   15 ar
    33   14   46 1
    34   15   16 ar
    35   15   18 1
    36   16   17 ar
    37   18   19 1
    38   18   47 1
    39   19   20 1
    40   19   48 1
    41   19   49 1
    42   20   25 ar
    43   20   21 ar
    44   21   22 ar
    45   21   50 1
    46   22   23 ar
    47   22   51 1
    48   23   24 ar
    49   23   52 1
    50   24   25 ar
    51   24   26 1
    52   25   53 1
    53   26   27 2
    54   26   28 1
    55   29   30 1
    56   29   31 1
    57   29   32 1
@<TRIPOS>MOLECULE
CHEMBL518516__1
   53    56     0     0     0
SMALL
USER_CHARGES

@<TRIPOS>ATOM
      1 C1          0.2923    1.4475    0.1727 C.3       1 <0>         0.0239
      2 N1          0.1595   -0.0128    0.0846 N.3       1 <0>        -0.5424
      3 C2         -1.2507   -0.4184    0.1540 C.3       1 <0>         0.0380
      4 C3         -1.3605   -1.9218   -0.1220 C.3       1 <0>         0.1230
      5 N2         -0.4627   -2.6330    0.8007 N.pl3     1 <0>        -0.5941
      6 C4          0.9376   -2.1916    0.8877 C.3       1 <0>         0.1283
      7 C5          0.9570   -0.6776    1.1239 C.3       1 <0>         0.0389
      8 C6         -0.9246   -3.6930    1.5688 C.ar      1 <0>         0.3782
      9 C7         -2.1932   -4.2402    1.3115 C.ar      1 <0>         0.0579
     10 N3         -2.6460   -5.2414    2.0271 N.ar      1 <0>        -0.3880
     11 C8         -1.8949   -5.7500    3.0128 C.ar      1 <0>         0.0576
     12 C9         -2.3584   -6.8231    3.7927 C.ar      1 <0>        -0.0655
     13 C10        -1.5807   -7.3266    4.7904 C.ar      1 <0>        -0.1290
     14 C11        -0.3222   -6.7956    5.0570 C.ar      1 <0>        -0.1657
     15 C12         0.1688   -5.7431    4.3151 C.ar      1 <0>         0.2410
     16 C13        -0.6163   -5.2011    3.2741 C.ar      1 <0>         0.1197
     17 N4         -0.1672   -4.1831    2.5316 N.ar      1 <0>        -0.5059
     18 N5          1.4309   -5.2181    4.5899 N.pl3     1 <0>        -0.7225
     19 C14         2.2408   -5.7852    5.6710 C.3       1 <0>         0.1615
     20 C15         3.5500   -5.0443    5.7597 C.ar      1 <0>        -0.1069
     21 C16         4.6387   -5.4740    5.0237 C.ar      1 <0>        -0.0471
     22 C17         5.8395   -4.7944    5.1050 C.ar      1 <0>        -0.1159
     23 C18         5.9519   -3.6848    5.9220 C.ar      1 <0>        -0.0461
     24 C19         4.8633   -3.2547    6.6571 C.ar      1 <0>        -0.0497
     25 C20         3.6609   -3.9319    6.5724 C.ar      1 <0>        -0.0357
     26 N6          4.9837   -2.0670    7.5322 N.pl3     1 <0>         0.0313
     27 O1          6.0343   -1.4731    7.6040 O.2       1 <0>        -0.1532
     28 O2          4.0315   -1.6908    8.1751 O.3       1 <0>        -0.1548
     29 C21        -2.0910   -8.4770    5.6195 C.3       1 <0>         0.5107
     30 F1         -3.3667   -8.8416    5.1761 F         1 <0>        -0.1743
     31 F2         -1.2230   -9.5665    5.4897 F         1 <0>        -0.1746
     32 F3         -2.1569   -8.0907    6.9625 F         1 <0>        -0.1742
     33 H1          1.3380    1.7258    0.0423 H         1 <0>         0.0720
     34 H2         -0.3081    1.9147   -0.6079 H         1 <0>         0.0725
     35 H3         -0.0547    1.7856    1.1492 H         1 <0>         0.0271
     36 H4         -1.6431   -0.2014    1.1475 H         1 <0>         0.0406
     37 H5         -1.8244    0.1312   -0.5922 H         1 <0>         0.0934
     38 H6         -2.3872   -2.2498    0.0405 H         1 <0>         0.0907
     39 H7         -1.0659   -2.1276   -1.1510 H         1 <0>         0.0848
     40 H8          1.4303   -2.6980    1.7177 H         1 <0>         0.0964
     41 H9          1.4531   -2.4234   -0.0443 H         1 <0>         0.0752
     42 H10         1.9843   -0.3159    1.0811 H         1 <0>         0.0883
     43 H11         0.5338   -0.4569    2.1038 H         1 <0>         0.0392
     44 H12        -2.8009   -3.8321    0.5174 H         1 <0>         0.1755
     45 H13        -3.3324   -7.2484    3.6008 H         1 <0>         0.1500
     46 H14         0.2758   -7.2125    5.8538 H         1 <0>         0.1399
     47 H15         1.7728   -4.4772    4.0653 H         1 <0>         0.4125
     48 H16         1.7045   -5.6897    6.6151 H         1 <0>         0.0821
     49 H17         2.4325   -6.8387    5.4670 H         1 <0>         0.0847
     50 H18         4.5509   -6.3408    4.3855 H         1 <0>         0.1465
     51 H19         6.6901   -5.1305    4.5307 H         1 <0>         0.1522
     52 H20         6.8904   -3.1542    5.9862 H         1 <0>         0.1565
     53 H21         2.8092   -3.5937    7.1439 H         1 <0>         0.1552
@<TRIPOS>BOND
     1    1    2 1
     2    1   33 1
     3    1   34 1
     4    1   35 1
     5    2    7 1
     6    2    3 1
     7    3    4 1
     8    3   36 1
     9    3   37 1
    10    4    5 1
    11    4   38 1
    12    4   39 1
    13    5    6 1
    14    5    8 1
    15    6    7 1
    16    6   40 1
    17    6   41 1
    18    7   42 1
    19    7   43 1
    20    8   17 ar
    21    8    9 ar
    22    9   10 ar
    23    9   44 1
    24   10   11 ar
    25   11   16 ar
    26   11   12 ar
    27   12   13 ar
    28   12   45 1
    29   13   14 ar
    30   13   29 1
    31   14   15 ar
    32   14   46 1
    33   15   16 ar
    34   15   18 1
    35   16   17 ar
    36   18   19 1
    37   18   47 1
    38   19   20 1
    39   19   48 1
    40   19   49 1
    41   20   25 ar
    42   20   21 ar
    43   21   22 ar
    44   21   50 1
    45   22   23 ar
    46   22   51 1
    47   23   24 ar
    48   23   52 1
    49   24   25 ar
    50   24   26 1
    51   25   53 1
    52   26   27 2
    53   26   28 1
    54   29   30 1
    55   29   31 1
    56   29   32 1
@<TRIPOS>MOLECULE
CHEMBL258396
   55    59     0     0     0
SMALL
USER_CHARGES

@<TRIPOS>ATOM
      1 C1          0.7953   -1.0127   -1.3749 C.3       1 <0>         0.0923
      2 N1         -0.2173   -0.7008   -0.3632 N.pl3     1 <0>        -0.3686
      3 C2         -1.2623    0.1509   -0.4945 C.2       1 <0>         0.3506
      4 N2         -1.9309    0.1451    0.6430 N.2       1 <0>        -0.5139
      5 C3         -1.3479   -0.6846    1.5025 C.2       1 <0>         0.2081
      6 N3         -0.3027   -1.2296    0.9350 N.2       1 <0>        -0.3030
      7 C4         -1.5929    0.9426   -1.6929 C.2       1 <0>        -0.0711
      8 C5         -2.7500    1.5928   -1.9865 C.2       1 <0>        -0.0682
      9 C6         -2.8702    2.3017   -3.1957 C.ar      1 <0>         0.1489
     10 C7         -1.7305    2.2720   -4.0291 C.ar      1 <0>        -0.1970
     11 S1         -0.5702    1.2907   -3.1135 S.3       1 <0>         0.1219
     12 C8         -1.7011    2.9242   -5.2494 C.ar      1 <0>         0.2094
     13 C9         -2.8402    3.6224   -5.6434 C.ar      1 <0>        -0.2229
     14 C10        -3.9366    3.6264   -4.7964 C.ar      1 <0>         0.1615
     15 N4         -3.9373    3.0005   -3.6475 N.ar      1 <0>        -0.4659
     16 O1         -0.5965    2.8852   -6.0374 O.3       1 <0>        -0.2371
     17 C11        -0.6700    3.4582   -7.2687 C.ar      1 <0>         0.0502
     18 C12        -0.8410    2.6650   -8.3934 C.ar      1 <0>        -0.0797
     19 C13        -0.9157    3.2458   -9.6441 C.ar      1 <0>        -0.0634
     20 C14        -0.8198    4.6248   -9.7767 C.ar      1 <0>         0.1584
     21 C15        -0.6486    5.4200   -8.6515 C.ar      1 <0>        -0.1430
     22 C16        -0.5795    4.8384   -7.3990 C.ar      1 <0>         0.0977
     23 F1         -0.4189    5.6116   -6.3028 F         1 <0>        -0.1211
     24 N5         -0.8952    5.2134  -11.0453 N.pl3     1 <0>        -0.6258
     25 C17        -1.8557    4.8306  -11.9098 C.2       1 <0>         0.5083
     26 S2         -2.9109    3.5454  -11.5027 S.2       1 <0>        -0.4737
     27 N6         -1.9856    5.4596  -13.0946 N.am      1 <0>        -0.6412
     28 C18        -2.9461    5.0768  -13.9591 C.2       1 <0>         0.4829
     29 O2         -3.6935    4.1666  -13.6708 O.2       1 <0>        -0.3887
     30 C19        -3.0913    5.7802  -15.2840 C.3       1 <0>        -0.0932
     31 C20        -4.2300    5.1658  -16.0567 C.ar      1 <0>        -0.0805
     32 C21        -3.9942    4.0997  -16.9044 C.ar      1 <0>        -0.1013
     33 C22        -5.0387    3.5361  -17.6132 C.ar      1 <0>        -0.1182
     34 C23        -6.3190    4.0384  -17.4740 C.ar      1 <0>        -0.1128
     35 C24        -6.5549    5.1040  -16.6255 C.ar      1 <0>        -0.1181
     36 C25        -5.5112    5.6648  -15.9135 C.ar      1 <0>        -0.1013
     37 H1          0.4598   -1.8574   -1.9765 H         1 <0>         0.0915
     38 H2          0.9456   -0.1455   -2.0179 H         1 <0>         0.0871
     39 H3          1.7341   -1.2672   -0.8829 H         1 <0>         0.1050
     40 H4         -1.6866   -0.8815    2.5089 H         1 <0>         0.2269
     41 H5         -3.5766    1.5650   -1.2920 H         1 <0>         0.1645
     42 H6         -2.8679    4.1483   -6.5864 H         1 <0>         0.1513
     43 H7         -4.8230    4.1660   -5.0954 H         1 <0>         0.1715
     44 H8         -0.9153    1.5924   -8.2911 H         1 <0>         0.1531
     45 H9         -1.0485    2.6273  -10.5195 H         1 <0>         0.1634
     46 H10        -0.5739    6.4925   -8.7540 H         1 <0>         0.1496
     47 H11        -0.2560    5.8965  -11.3018 H         1 <0>         0.4125
     48 H12        -1.3877    6.1878  -13.3253 H         1 <0>         0.4128
     49 H13        -3.2963    6.8371  -15.1137 H         1 <0>         0.1093
     50 H14        -2.1678    5.6763  -15.8536 H         1 <0>         0.1094
     51 H15        -2.9939    3.7072  -17.0132 H         1 <0>         0.1202
     52 H16        -4.8544    2.7036  -18.2761 H         1 <0>         0.1238
     53 H17        -7.1349    3.5986  -18.0283 H         1 <0>         0.1233
     54 H18        -7.5551    5.4967  -16.5170 H         1 <0>         0.1239
     55 H19        -5.6961    6.4949  -15.2478 H         1 <0>         0.1202
@<TRIPOS>BOND
     1    1    2 1
     2    1   37 1
     3    1   38 1
     4    1   39 1
     5    2    6 1
     6    2    3 1
     7    3    4 2
     8    3    7 1
     9    4    5 1
    10    5    6 2
    11    5   40 1
    12    7   11 1
    13    7    8 2
    14    8    9 1
    15    8   41 1
    16    9   15 ar
    17    9   10 ar
    18   10   11 1
    19   10   12 ar
    20   12   13 ar
    21   12   16 1
    22   13   14 ar
    23   13   42 1
    24   14   15 ar
    25   14   43 1
    26   16   17 1
    27   17   22 ar
    28   17   18 ar
    29   18   19 ar
    30   18   44 1
    31   19   20 ar
    32   19   45 1
    33   20   21 ar
    34   20   24 1
    35   21   22 ar
    36   21   46 1
    37   22   23 1
    38   24   25 1
    39   24   47 1
    40   25   26 2
    41   25   27 1
    42   27   28 am
    43   27   48 1
    44   28   29 2
    45   28   30 1
    46   30   31 1
    47   30   49 1
    48   30   50 1
    49   31   36 ar
    50   31   32 ar
    51   32   33 ar
    52   32   51 1
    53   33   34 ar
    54   33   52 1
    55   34   35 ar
    56   34   53 1
    57   35   36 ar
    58   35   54 1
    59   36   55 1
@<TRIPOS>MOLECULE
CHEMBL565990
   61    65     0     0     0
SMALL
USER_CHARGES

@<TRIPOS>ATOM
      1 C1         -1.7710   -4.0424   -0.6588 C.3       1 <0>        -0.1728
      2 C2         -1.8989   -3.9364   -2.1798 C.3       1 <0>         0.0960
      3 N1         -0.6754   -3.3507   -2.7331 N.pl3     1 <0>        -0.4543
      4 C3         -0.4372   -2.0318   -2.9237 C.2       1 <0>         0.0494
      5 C4          0.8168   -1.9287   -3.4556 C.2       1 <0>        -0.0915
      6 N2          1.3135   -3.1862   -3.5768 N.2       1 <0>        -0.4526
      7 C5          0.4262   -4.0334   -3.1415 C.2       1 <0>         0.1961
      8 C6          1.5041   -0.6810   -3.8301 C.2       1 <0>         0.5252
      9 O1          0.9489    0.3906   -3.6723 O.2       1 <0>        -0.4378
     10 C7          2.8616   -0.7300   -4.3947 C.2       1 <0>        -0.1882
     11 C8          3.6537    0.3038   -4.7922 C.2       1 <0>        -0.0705
     12 C9          4.9344    0.0465   -5.3114 C.ar      1 <0>         0.1322
     13 C10         5.2979   -1.3170   -5.3763 C.ar      1 <0>        -0.2171
     14 S1          3.8803   -2.1586   -4.7210 S.3       1 <0>         0.2077
     15 C11         6.5298   -1.7224   -5.8657 C.ar      1 <0>         0.2069
     16 C12         7.4142   -0.7393   -6.2984 C.ar      1 <0>        -0.2282
     17 C13         7.0173    0.5874   -6.2172 C.ar      1 <0>         0.1563
     18 N3          5.8490    0.9425   -5.7508 N.ar      1 <0>        -0.4695
     19 O2          6.8631   -3.0370   -5.9206 O.3       1 <0>        -0.2352
     20 C14         8.0435   -3.3726   -6.5067 C.ar      1 <0>         0.0178
     21 C15         8.0861   -3.6657   -7.8616 C.ar      1 <0>        -0.0647
     22 C16         9.2844   -4.0066   -8.4577 C.ar      1 <0>        -0.1475
     23 C17        10.4476   -4.0565   -7.7009 C.ar      1 <0>         0.1930
     24 C18        10.4062   -3.7633   -6.3445 C.ar      1 <0>        -0.1593
     25 C19         9.2074   -3.4161   -5.7493 C.ar      1 <0>         0.1270
     26 F1          9.1669   -3.1252   -4.4306 F         1 <0>        -0.1199
     27 N4         11.6626   -4.4032   -8.3058 N.am      1 <0>        -0.6722
     28 C20        12.8250   -3.9663   -7.7820 C.2       1 <0>         0.5118
     29 O3         12.8165   -3.1851   -6.8542 O.2       1 <0>        -0.4617
     30 C21        14.1354   -4.4484   -8.3491 C.3       1 <0>        -0.1631
     31 C22        15.2739   -3.8149   -7.5919 C.2       1 <0>         0.5103
     32 O4         15.0439   -3.0474   -6.6813 O.2       1 <0>        -0.4703
     33 N5         16.5477   -4.1011   -7.9265 N.am      1 <0>        -0.6764
     34 C23        17.6027   -3.6041   -7.1532 C.ar      1 <0>         0.1442
     35 C24        18.7966   -3.2359   -7.7596 C.ar      1 <0>        -0.1449
     36 C25        19.8360   -2.7458   -6.9936 C.ar      1 <0>        -0.1013
     37 C26        19.6890   -2.6216   -5.6242 C.ar      1 <0>        -0.1331
     38 C27        18.5016   -2.9878   -5.0174 C.ar      1 <0>        -0.1001
     39 C28        17.4562   -3.4728   -5.7785 C.ar      1 <0>        -0.1195
     40 H1         -0.9198   -4.6758   -0.4091 H         1 <0>         0.0665
     41 H2         -1.6208   -3.0488   -0.2367 H         1 <0>         0.0652
     42 H3         -2.6813   -4.4783   -0.2472 H         1 <0>         0.0815
     43 H4         -2.0491   -4.9301   -2.6019 H         1 <0>         0.1014
     44 H5         -2.7501   -3.3031   -2.4296 H         1 <0>         0.0978
     45 H6         -1.1096   -1.2172   -2.6984 H         1 <0>         0.1902
     46 H7          0.5454   -5.1064   -3.1119 H         1 <0>         0.2146
     47 H8          3.2983    1.3202   -4.7088 H         1 <0>         0.1565
     48 H9          8.3864   -1.0028   -6.6879 H         1 <0>         0.1483
     49 H10         7.6990    1.3555   -6.5515 H         1 <0>         0.1676
     50 H11         7.1818   -3.6278   -8.4507 H         1 <0>         0.1496
     51 H12         9.3167   -4.2347   -9.5128 H         1 <0>         0.1453
     52 H13        11.3105   -3.8023   -5.7554 H         1 <0>         0.1652
     53 H14        11.6673   -4.9577   -9.1017 H         1 <0>         0.4173
     54 H15        14.1951   -5.5327   -8.2548 H         1 <0>         0.1335
     55 H16        14.1999   -4.1711   -9.4013 H         1 <0>         0.1316
     56 H17        16.7331   -4.6516   -8.7033 H         1 <0>         0.4105
     57 H18        18.9122   -3.3331   -8.8290 H         1 <0>         0.1253
     58 H19        20.7648   -2.4596   -7.4645 H         1 <0>         0.1269
     59 H20        20.5033   -2.2380   -5.0274 H         1 <0>         0.1243
     60 H21        18.3900   -2.8899   -3.9476 H         1 <0>         0.1264
     61 H22        16.5273   -3.7538   -5.3046 H         1 <0>         0.1323
@<TRIPOS>BOND
     1    1    2 1
     2    1   40 1
     3    1   41 1
     4    1   42 1
     5    2    3 1
     6    2   43 1
     7    2   44 1
     8    3    7 1
     9    3    4 1
    10    4    5 2
    11    4   45 1
    12    5    6 1
    13    5    8 1
    14    6    7 2
    15    7   46 1
    16    8    9 2
    17    8   10 1
    18   10   14 1
    19   10   11 2
    20   11   12 1
    21   11   47 1
    22   12   18 ar
    23   12   13 ar
    24   13   14 1
    25   13   15 ar
    26   15   16 ar
    27   15   19 1
    28   16   17 ar
    29   16   48 1
    30   17   18 ar
    31   17   49 1
    32   19   20 1
    33   20   25 ar
    34   20   21 ar
    35   21   22 ar
    36   21   50 1
    37   22   23 ar
    38   22   51 1
    39   23   24 ar
    40   23   27 1
    41   24   25 ar
    42   24   52 1
    43   25   26 1
    44   27   28 am
    45   27   53 1
    46   28   29 2
    47   28   30 1
    48   30   31 1
    49   30   54 1
    50   30   55 1
    51   31   32 2
    52   31   33 am
    53   33   34 1
    54   33   56 1
    55   34   39 ar
    56   34   35 ar
    57   35   36 ar
    58   35   57 1
    59   36   37 ar
    60   36   58 1
    61   37   38 ar
    62   37   59 1
    63   38   39 ar
    64   38   60 1
    65   39   61 1
@<TRIPOS>MOLECULE
CHEMBL254964
   60    64     0     0     0
SMALL
USER_CHARGES

@<TRIPOS>ATOM
      1 C1         10.8471    0.9819   -3.5872 C.ar      1 <0>        -0.1128
      2 C2         10.7653   -0.3972   -3.5378 C.ar      1 <0>        -0.1181
      3 C3          9.7515   -1.0042   -2.8205 C.ar      1 <0>        -0.1014
      4 C4          8.8197   -0.2322   -2.1523 C.ar      1 <0>        -0.0804
      5 C5          8.9019    1.1468   -2.2009 C.ar      1 <0>        -0.1014
      6 C6          9.9149    1.7539   -2.9194 C.ar      1 <0>        -0.1181
      7 C7          7.7138   -0.8940   -1.3711 C.3       1 <0>        -0.0930
      8 C8          8.1684   -1.1234    0.0473 C.2       1 <0>         0.4823
      9 O1          9.2805   -0.7830    0.3899 O.2       1 <0>        -0.3883
     10 N1          7.3388   -1.7068    0.9348 N.am      1 <0>        -0.6407
     11 C9          7.7454   -1.9119    2.2033 C.2       1 <0>         0.5053
     12 S1          9.3157   -1.4313    2.6872 S.2       1 <0>        -0.4710
     13 N2          6.9157   -2.4953    3.0909 N.pl3     1 <0>        -0.6252
     14 C10         7.3760   -2.8147    4.3744 C.ar      1 <0>         0.1661
     15 C11         6.5607   -2.6001    5.4780 C.ar      1 <0>        -0.1175
     16 C12         7.0140   -2.9154    6.7439 C.ar      1 <0>        -0.0790
     17 C13         8.2838   -3.4463    6.9143 C.ar      1 <0>         0.0434
     18 C14         9.1008   -3.6617    5.8114 C.ar      1 <0>         0.1097
     19 C15         8.6453   -3.3515    4.5433 C.ar      1 <0>        -0.1024
     20 F1         10.3378   -4.1788    5.9774 F         1 <0>        -0.1183
     21 O2          8.7296   -3.7556    8.1614 O.3       1 <0>        -0.2371
     22 C16         9.4947   -2.8410    8.8097 C.ar      1 <0>         0.2061
     23 C17         9.8928   -1.6647    8.1826 C.ar      1 <0>        -0.2221
     24 C18        10.6739   -0.7679    8.8967 C.ar      1 <0>         0.1601
     25 N3         11.0456   -0.9894   10.1301 N.ar      1 <0>        -0.4664
     26 C19        10.6994   -2.1086   10.8081 C.ar      1 <0>         0.1394
     27 C20         9.8993   -3.0468   10.1196 C.ar      1 <0>        -0.2016
     28 S2          9.6541   -4.3391   11.3101 S.3       1 <0>         0.1263
     29 C21        10.5833   -3.6269   12.6571 C.2       1 <0>        -0.1673
     30 C22        11.0357   -2.4581   12.1279 C.2       1 <0>        -0.0583
     31 C23        10.8127   -4.1739   14.0039 C.2       1 <0>         0.6170
     32 O3         11.4777   -3.5498   14.8087 O.2       1 <0>        -0.5130
     33 N4         10.2860   -5.3666   14.3456 N.am      1 <0>        -0.6115
     34 C24         9.4719   -6.2253   13.4730 C.3       1 <0>         0.0839
     35 C25         9.0730   -7.4681   14.2963 C.3       1 <0>        -0.1275
     36 C26         9.2103   -6.9737   15.7606 C.3       1 <0>        -0.1344
     37 C27        10.4362   -6.0291   15.6540 C.3       1 <0>         0.1063
     38 H1         11.6418    1.4561   -4.1439 H         1 <0>         0.1233
     39 H2         11.4934   -1.0003   -4.0599 H         1 <0>         0.1239
     40 H3          9.6872   -2.0816   -2.7825 H         1 <0>         0.1202
     41 H4          8.1737    1.7499   -1.6791 H         1 <0>         0.1202
     42 H5          9.9790    2.8313   -2.9577 H         1 <0>         0.1239
     43 H6          6.8338   -0.2509   -1.3711 H         1 <0>         0.1094
     44 H7          7.4652   -1.8500   -1.8320 H         1 <0>         0.1093
     45 H8          6.4491   -1.9791    0.6607 H         1 <0>         0.4127
     46 H9          5.9998   -2.6939    2.8407 H         1 <0>         0.4134
     47 H10         5.5720   -2.1860    5.3462 H         1 <0>         0.1456
     48 H11         6.3793   -2.7481    7.6016 H         1 <0>         0.1520
     49 H12         9.2781   -3.5228    3.6850 H         1 <0>         0.1639
     50 H13         9.6011   -1.4549    7.1641 H         1 <0>         0.1529
     51 H14        10.9867    0.1470    8.4157 H         1 <0>         0.1711
     52 H15        11.6423   -1.7935   12.7252 H         1 <0>         0.1614
     53 H16         8.5780   -5.6889   13.1547 H         1 <0>         0.0783
     54 H17        10.0544   -6.5283   12.6030 H         1 <0>         0.0787
     55 H18         8.0445   -7.7586   14.0823 H         1 <0>         0.0881
     56 H19         9.7566   -8.2947   14.1027 H         1 <0>         0.0821
     57 H20         8.3196   -6.4294   16.0744 H         1 <0>         0.0798
     58 H21         9.4168   -7.8042   16.4357 H         1 <0>         0.0902
     59 H22        11.3632   -6.6017   15.6850 H         1 <0>         0.0757
     60 H23        10.4176   -5.2920   16.4568 H         1 <0>         0.0850
@<TRIPOS>BOND
     1    1    6 ar
     2    1    2 ar
     3    1   38 1
     4    2    3 ar
     5    2   39 1
     6    3    4 ar
     7    3   40 1
     8    4    5 ar
     9    4    7 1
    10    5    6 ar
    11    5   41 1
    12    6   42 1
    13    7    8 1
    14    7   43 1
    15    7   44 1
    16    8    9 2
    17    8   10 am
    18   10   11 1
    19   10   45 1
    20   11   12 2
    21   11   13 1
    22   13   14 1
    23   13   46 1
    24   14   19 ar
    25   14   15 ar
    26   15   16 ar
    27   15   47 1
    28   16   17 ar
    29   16   48 1
    30   17   18 ar
    31   17   21 1
    32   18   19 ar
    33   18   20 1
    34   19   49 1
    35   21   22 1
    36   22   27 ar
    37   22   23 ar
    38   23   24 ar
    39   23   50 1
    40   24   25 ar
    41   24   51 1
    42   25   26 ar
    43   26   30 1
    44   26   27 ar
    45   27   28 1
    46   28   29 1
    47   29   30 2
    48   29   31 1
    49   30   52 1
    50   31   32 2
    51   31   33 am
    52   33   37 1
    53   33   34 1
    54   34   35 1
    55   34   53 1
    56   34   54 1
    57   35   36 1
    58   35   55 1
    59   35   56 1
    60   36   37 1
    61   36   57 1
    62   36   58 1
    63   37   59 1
    64   37   60 1
@<TRIPOS>MOLECULE
CHEMBL253222
   60    63     0     0     0
SMALL
USER_CHARGES

@<TRIPOS>ATOM
      1 C1         -0.0753    1.4498    0.0075 C.3       1 <0>        -0.0846
      2 C2          0.0423   -0.0526    0.0118 C.2       1 <0>        -0.0746
      3 C3          0.0956   -0.8861   -1.1093 C.2       1 <0>         0.0501
      4 C4          0.2009   -2.1721   -0.6703 C.2       1 <0>        -0.0066
      5 N1          0.2156   -2.1748    0.6831 N.pl3     1 <0>        -0.2271
      6 C5          0.1241   -0.8682    1.1252 C.2       1 <0>        -0.0620
      7 C6          0.1274   -0.6250    2.5156 C.2       1 <0>         0.4677
      8 N2          0.2207   -1.6456    3.3491 N.2       1 <0>        -0.5955
      9 C7          0.3118   -2.9000    2.9106 C.2       1 <0>         0.3332
     10 N3          0.3057   -3.1958    1.6397 N.2       1 <0>        -0.3298
     11 O1          0.0366    0.6396    2.9894 O.3       1 <0>        -0.2119
     12 C8         -0.0613    0.8118    4.3349 C.ar      1 <0>         0.0253
     13 C9         -1.3085    0.9322    4.9295 C.ar      1 <0>        -0.0571
     14 C10        -1.4090    1.1075    6.2956 C.ar      1 <0>        -0.1406
     15 C11        -0.2611    1.1635    7.0754 C.ar      1 <0>         0.1936
     16 C12         0.9881    1.0426    6.4812 C.ar      1 <0>        -0.1487
     17 C13         1.0879    0.8614    5.1142 C.ar      1 <0>         0.1408
     18 F1          2.3025    0.7381    4.5357 F         1 <0>        -0.1228
     19 N4         -0.3634    1.3422    8.4602 N.am      1 <0>        -0.6691
     20 C14         0.5606    2.0724    9.1155 C.2       1 <0>         0.5704
     21 O2          1.5282    2.5046    8.5197 O.2       1 <0>        -0.5059
     22 C15         0.3975    2.3478   10.5585 C.ar      1 <0>        -0.1971
     23 C16         1.3474    3.1100   11.2497 C.ar      1 <0>        -0.0100
     24 C17         1.1481    3.3389   12.5996 C.ar      1 <0>        -0.1757
     25 C18         0.0277    2.8125   13.2175 C.ar      1 <0>         0.1319
     26 N5         -0.8508    2.0978   12.5408 N.ar      1 <0>        -0.4847
     27 C19        -0.7084    1.8574   11.2538 C.ar      1 <0>         0.1390
     28 O3          0.0499   -0.4844   -2.4094 O.3       1 <0>        -0.2869
     29 C20         0.1193   -1.5054   -3.4067 C.3       1 <0>         0.0614
     30 C21         0.0540   -0.8670   -4.7956 C.3       1 <0>        -0.1507
     31 C22         0.1283   -1.9602   -5.8634 C.3       1 <0>        -0.0076
     32 N6          0.0656   -1.3472   -7.1970 N.4       1 <0>        -0.3859
     33 C23         0.2569   -2.3826   -8.2213 C.3       1 <0>        -0.0474
     34 C24        -1.2455   -0.7112   -7.3824 C.3       1 <0>        -0.0545
     35 H1          0.9207    1.8922   -0.0101 H         1 <0>         0.0753
     36 H2         -0.6299    1.7682   -0.8752 H         1 <0>         0.0740
     37 H3         -0.6018    1.7756    0.9046 H         1 <0>         0.0752
     38 H4          0.2624   -3.0472   -1.3002 H         1 <0>         0.1811
     39 H5          0.3864   -3.7004    3.6319 H         1 <0>         0.2288
     40 H6         -2.2016    0.8891    4.3238 H         1 <0>         0.1475
     41 H7         -2.3806    1.2015    6.7578 H         1 <0>         0.1475
     42 H8          1.8811    1.0865    7.0871 H         1 <0>         0.1622
     43 H9         -1.0993    0.9404    8.9480 H         1 <0>         0.4177
     44 H10         2.2134    3.5086   10.7422 H         1 <0>         0.1508
     45 H11         1.8599    3.9219   13.1651 H         1 <0>         0.1489
     46 H12        -0.1301    2.9893   14.2711 H         1 <0>         0.1671
     47 H13        -1.4516    1.2718   10.7331 H         1 <0>         0.1582
     48 H14         1.0562   -2.0526   -3.3020 H         1 <0>         0.0713
     49 H15        -0.7182   -2.1920   -3.2827 H         1 <0>         0.0709
     50 H16        -0.8829   -0.3199   -4.9003 H         1 <0>         0.1001
     51 H17         0.8915   -0.1805   -4.9196 H         1 <0>         0.1001
     52 H18         1.0652   -2.5074   -5.7587 H         1 <0>         0.1351
     53 H19        -0.7092   -2.6467   -5.7394 H         1 <0>         0.1338
     54 H20        -0.5275   -3.1339   -8.1295 H         1 <0>         0.1227
     55 H21         0.2104   -1.9278   -9.2108 H         1 <0>         0.1262
     56 H22         1.2298   -2.8545   -8.0837 H         1 <0>         0.1243
     57 H23        -1.3874    0.0570   -6.6223 H         1 <0>         0.1260
     58 H24        -1.2920   -0.2564   -8.3719 H         1 <0>         0.1261
     59 H25        -2.0300   -1.4625   -7.2906 H         1 <0>         0.1234
     60 H26         0.7918   -0.6518   -7.2819 H         1 <0>         0.4288
@<TRIPOS>BOND
     1    1    2 1
     2    1   35 1
     3    1   36 1
     4    1   37 1
     5    2    6 2
     6    2    3 1
     7    3    4 2
     8    3   28 1
     9    4    5 1
    10    4   38 1
    11    5   10 1
    12    5    6 1
    13    6    7 1
    14    7    8 2
    15    7   11 1
    16    8    9 1
    17    9   10 2
    18    9   39 1
    19   11   12 1
    20   12   17 ar
    21   12   13 ar
    22   13   14 ar
    23   13   40 1
    24   14   15 ar
    25   14   41 1
    26   15   16 ar
    27   15   19 1
    28   16   17 ar
    29   16   42 1
    30   17   18 1
    31   19   20 am
    32   19   43 1
    33   20   21 2
    34   20   22 1
    35   22   27 ar
    36   22   23 ar
    37   23   24 ar
    38   23   44 1
    39   24   25 ar
    40   24   45 1
    41   25   26 ar
    42   25   46 1
    43   26   27 ar
    44   27   47 1
    45   28   29 1
    46   29   30 1
    47   29   48 1
    48   29   49 1
    49   30   31 1
    50   30   50 1
    51   30   51 1
    52   31   32 1
    53   31   52 1
    54   31   53 1
    55   32   33 1
    56   32   34 1
    57   32   60 1
    58   33   54 1
    59   33   55 1
    60   33   56 1
    61   34   57 1
    62   34   58 1
    63   34   59 1
@<TRIPOS>MOLECULE
CHEMBL399698
   74    78     0     0     0
SMALL
USER_CHARGES

@<TRIPOS>ATOM
      1 C1         -0.2005    2.6096   -0.2918 C.3       1 <0>        -0.0795
      2 C2         -0.0548    1.1269   -0.0654 C.2       1 <0>        -0.0814
      3 C3          0.0419    0.1404   -1.0513 C.2       1 <0>         0.0563
      4 C4          0.1605   -1.0652   -0.4270 C.2       1 <0>        -0.0118
      5 N1          0.1415   -0.8705    0.9123 N.pl3     1 <0>        -0.2273
      6 C5          0.0146    0.4841    1.1567 C.2       1 <0>        -0.0626
      7 C6         -0.0215    0.9272    2.4963 C.2       1 <0>         0.4643
      8 N2          0.0698    0.0411    3.4719 N.2       1 <0>        -0.5946
      9 C7          0.1953   -1.2614    3.2234 C.2       1 <0>         0.3309
     10 N3          0.2270   -1.7391    2.0095 N.2       1 <0>        -0.3290
     11 O1         -0.1479    2.2450    2.7782 O.3       1 <0>        -0.2134
     12 C8         -0.2827    2.6090    4.0816 C.ar      1 <0>         0.0220
     13 C9         -1.5464    2.7846    4.6254 C.ar      1 <0>        -0.0555
     14 C10        -1.6843    3.1542    5.9488 C.ar      1 <0>        -0.1459
     15 C11        -0.5576    3.3505    6.7365 C.ar      1 <0>         0.1991
     16 C12         0.7081    3.1746    6.1935 C.ar      1 <0>        -0.1549
     17 C13         0.8455    2.7993    4.8699 C.ar      1 <0>         0.1426
     18 F1          2.0765    2.6229    4.3418 F         1 <0>        -0.1241
     19 N4         -0.6979    3.7263    8.0786 N.am      1 <0>        -0.6741
     20 C14         0.2267    3.3500    8.9840 C.2       1 <0>         0.5124
     21 O2          1.1317    2.6121    8.6558 O.2       1 <0>        -0.4620
     22 C15         0.1362    3.8460   10.4041 C.3       1 <0>        -0.1629
     23 C16         1.2809    3.2833   11.2067 C.2       1 <0>         0.5113
     24 O3          2.0906    2.5514   10.6775 O.2       1 <0>        -0.4712
     25 N5          1.4050    3.5932   12.5124 N.am      1 <0>        -0.6737
     26 C17         2.5178    3.1463   13.2354 C.ar      1 <0>         0.1347
     27 C18         2.3868    2.8112   14.5765 C.ar      1 <0>        -0.1147
     28 C19         3.4856    2.3707   15.2879 C.ar      1 <0>        -0.1332
     29 C20         4.7175    2.2636   14.6646 C.ar      1 <0>         0.0861
     30 C21         4.8504    2.5972   13.3273 C.ar      1 <0>        -0.1330
     31 C22         3.7527    3.0323   12.6108 C.ar      1 <0>        -0.0916
     32 F2          5.7914    1.8333   15.3624 F         1 <0>        -0.1378
     33 O4          0.0210    0.3475   -2.3968 O.3       1 <0>        -0.2763
     34 C23         0.1343   -0.8061   -3.2326 C.3       1 <0>         0.0611
     35 C24         0.0915   -0.3783   -4.7009 C.3       1 <0>         0.0576
     36 N6          1.2587    0.4619   -5.0003 N.3       1 <0>        -0.5324
     37 C25         1.0367    1.2581   -6.2156 C.3       1 <0>         0.0271
     38 C26         2.2481    2.1610   -6.4586 C.3       1 <0>        -0.0028
     39 N7          3.4531    1.3345   -6.6073 N.4       1 <0>        -0.3881
     40 C27         3.6754    0.5639   -5.3767 C.3       1 <0>        -0.0021
     41 C28         2.4759   -0.3523   -5.1248 C.3       1 <0>         0.0212
     42 C29         4.6127    2.2006   -6.8586 C.3       1 <0>        -0.0458
     43 H1          0.7872    3.0668   -0.3520 H         1 <0>         0.0704
     44 H2         -0.7389    2.7838   -1.2234 H         1 <0>         0.0734
     45 H3         -0.7551    3.0508    0.5364 H         1 <0>         0.0723
     46 H4          0.2537   -2.0212   -0.9208 H         1 <0>         0.1798
     47 H5          0.2667   -1.9464    4.0553 H         1 <0>         0.2275
     48 H6         -2.4231    2.6325    4.0133 H         1 <0>         0.1465
     49 H7         -2.6687    3.2911    6.3713 H         1 <0>         0.1459
     50 H8          1.5846    3.3271    6.8057 H         1 <0>         0.1607
     51 H9         -1.4607    4.2574    8.3563 H         1 <0>         0.4178
     52 H10         0.1872    4.9348   10.4127 H         1 <0>         0.1346
     53 H11        -0.8081    3.5230   10.8423 H         1 <0>         0.1329
     54 H12         0.7234    4.1258   12.9514 H         1 <0>         0.4129
     55 H13         1.4263    2.8953   15.0631 H         1 <0>         0.1374
     56 H14         3.3841    2.1100   16.3310 H         1 <0>         0.1415
     57 H15         5.8121    2.5133   12.8431 H         1 <0>         0.1400
     58 H16         3.8557    3.2882   11.5666 H         1 <0>         0.1440
     59 H17         1.0784   -1.3113   -3.0286 H         1 <0>         0.0607
     60 H18        -0.6930   -1.4857   -3.0279 H         1 <0>         0.0736
     61 H19         0.1077   -1.2629   -5.3377 H         1 <0>         0.0717
     62 H20        -0.8211    0.1875   -4.8881 H         1 <0>         0.1006
     63 H21         0.9032    0.5915   -7.0677 H         1 <0>         0.0600
     64 H22         0.1448    1.8719   -6.0904 H         1 <0>         0.1254
     65 H23         2.0916    2.7420   -7.3675 H         1 <0>         0.1358
     66 H24         2.3731    2.8367   -5.6125 H         1 <0>         0.1389
     67 H25         4.5771   -0.0391   -5.4835 H         1 <0>         0.1352
     68 H26         3.7931    1.2478   -4.5362 H         1 <0>         0.1387
     69 H27         2.6340   -0.9133   -4.2037 H         1 <0>         0.1219
     70 H28         2.3661   -1.0454   -5.9588 H         1 <0>         0.0614
     71 H29         4.7429    2.8855   -6.0207 H         1 <0>         0.1234
     72 H30         5.5071    1.5874   -6.9690 H         1 <0>         0.1238
     73 H31         4.4485    2.7715   -7.7724 H         1 <0>         0.1243
     74 H32         3.3326    0.7010   -7.3834 H         1 <0>         0.4218
@<TRIPOS>BOND
     1    1    2 1
     2    1   43 1
     3    1   44 1
     4    1   45 1
     5    2    6 2
     6    2    3 1
     7    3    4 2
     8    3   33 1
     9    4    5 1
    10    4   46 1
    11    5   10 1
    12    5    6 1
    13    6    7 1
    14    7    8 2
    15    7   11 1
    16    8    9 1
    17    9   10 2
    18    9   47 1
    19   11   12 1
    20   12   17 ar
    21   12   13 ar
    22   13   14 ar
    23   13   48 1
    24   14   15 ar
    25   14   49 1
    26   15   16 ar
    27   15   19 1
    28   16   17 ar
    29   16   50 1
    30   17   18 1
    31   19   20 am
    32   19   51 1
    33   20   21 2
    34   20   22 1
    35   22   23 1
    36   22   52 1
    37   22   53 1
    38   23   24 2
    39   23   25 am
    40   25   26 1
    41   25   54 1
    42   26   31 ar
    43   26   27 ar
    44   27   28 ar
    45   27   55 1
    46   28   29 ar
    47   28   56 1
    48   29   30 ar
    49   29   32 1
    50   30   31 ar
    51   30   57 1
    52   31   58 1
    53   33   34 1
    54   34   35 1
    55   34   59 1
    56   34   60 1
    57   35   36 1
    58   35   61 1
    59   35   62 1
    60   36   41 1
    61   36   37 1
    62   37   38 1
    63   37   63 1
    64   37   64 1
    65   38   39 1
    66   38   65 1
    67   38   66 1
    68   39   40 1
    69   39   42 1
    70   39   74 1
    71   40   41 1
    72   40   67 1
    73   40   68 1
    74   41   69 1
    75   41   70 1
    76   42   71 1
    77   42   72 1
    78   42   73 1
@<TRIPOS>MOLECULE
CHEMBL460465
   60    64     0     0     0
SMALL
USER_CHARGES

@<TRIPOS>ATOM
      1 C1         -1.8525    0.4827   -0.6550 C.3       1 <0>        -0.1129
      2 C2         -1.0059   -0.7132   -0.3025 C.2       1 <0>         0.2797
      3 C3         -0.1988   -1.4160   -1.1757 C.2       1 <0>        -0.3924
      4 C4          0.4290   -2.4911   -0.3912 C.2       1 <0>         0.5555
      5 O1          1.2106   -3.3294   -0.8000 O.2       1 <0>        -0.5212
      6 N1         -0.0323   -2.3647    0.8704 N.am      1 <0>        -0.3690
      7 N2         -0.9044   -1.2730    0.9181 N.pl3     1 <0>        -0.3630
      8 C5         -1.6059   -0.8086    2.1174 C.3       1 <0>         0.0798
      9 C6          0.3089   -3.1850    1.9506 C.ar      1 <0>         0.1382
     10 C7         -0.6845   -3.7083    2.7680 C.ar      1 <0>        -0.1274
     11 C8         -0.3443   -4.5184    3.8336 C.ar      1 <0>        -0.1016
     12 C9          0.9838   -4.8083    4.0872 C.ar      1 <0>        -0.1121
     13 C10         1.9753   -4.2889    3.2752 C.ar      1 <0>        -0.0982
     14 C11         1.6414   -3.4828    2.2047 C.ar      1 <0>        -0.0996
     15 C12        -0.0059   -1.1444   -2.6052 C.2       1 <0>         0.6173
     16 O2         -0.5911   -0.2169   -3.1327 O.2       1 <0>        -0.5315
     17 N3          0.8193   -1.9222   -3.3336 N.am      1 <0>        -0.6682
     18 C13         1.0851   -1.6014   -4.6705 C.ar      1 <0>         0.2002
     19 C14         1.1411   -0.2719   -5.0679 C.ar      1 <0>        -0.1202
     20 C15         1.4036    0.0449   -6.3862 C.ar      1 <0>        -0.0661
     21 C16         1.6116   -0.9642   -7.3145 C.ar      1 <0>         0.0169
     22 C17         1.5559   -2.2949   -6.9187 C.ar      1 <0>         0.1226
     23 C18         1.2983   -2.6125   -5.5980 C.ar      1 <0>        -0.1757
     24 F1          1.7580   -3.2780   -7.8232 F         1 <0>        -0.1232
     25 O3          1.8696   -0.6513   -8.6126 O.3       1 <0>        -0.2353
     26 C19         0.8343   -0.6612   -9.4875 C.ar      1 <0>         0.1940
     27 C20        -0.4638   -0.8704   -9.0543 C.ar      1 <0>        -0.2772
     28 C21        -1.5043   -0.8747   -9.9736 C.ar      1 <0>         0.1805
     29 N4         -1.2958   -0.6847  -11.2557 N.ar      1 <0>        -0.5018
     30 C22        -0.0674   -0.4768  -11.7435 C.ar      1 <0>         0.1970
     31 C23         1.0463   -0.4525  -10.8689 C.ar      1 <0>        -0.1476
     32 C24         2.3328   -0.2293  -11.3821 C.ar      1 <0>        -0.0335
     33 C25         2.5043   -0.0322  -12.7173 C.ar      1 <0>        -0.2016
     34 C26         1.4113   -0.0490  -13.5893 C.ar      1 <0>         0.1575
     35 C27         0.1383   -0.2758  -13.1181 C.ar      1 <0>        -0.1523
     36 O4          1.6095    0.1510  -14.9181 O.3       1 <0>        -0.3116
     37 C28         2.9547    0.3707  -15.3475 C.3       1 <0>         0.0241
     38 H1         -1.2690    1.3934   -0.5200 H         1 <0>         0.1039
     39 H2         -2.1732    0.4073   -1.6940 H         1 <0>         0.1209
     40 H3         -2.7276    0.5123   -0.0058 H         1 <0>         0.0827
     41 H4         -2.2721    0.0128    1.8535 H         1 <0>         0.1144
     42 H5         -2.1885   -1.6283    2.5378 H         1 <0>         0.0866
     43 H6         -0.8790   -0.4647    2.8533 H         1 <0>         0.0863
     44 H7         -1.7219   -3.4817    2.5708 H         1 <0>         0.1269
     45 H8         -1.1164   -4.9257    4.4696 H         1 <0>         0.1340
     46 H9          1.2472   -5.4415    4.9215 H         1 <0>         0.1324
     47 H10         3.0116   -4.5172    3.4760 H         1 <0>         0.1359
     48 H11         2.4160   -3.0811    1.5682 H         1 <0>         0.1327
     49 H12         1.2291   -2.7041   -2.9317 H         1 <0>         0.4246
     50 H13         0.9789    0.5146   -4.3457 H         1 <0>         0.1535
     51 H14         1.4466    1.0791   -6.6944 H         1 <0>         0.1480
     52 H15         1.2589   -3.6465   -5.2887 H         1 <0>         0.1492
     53 H16        -0.6663   -1.0299   -8.0055 H         1 <0>         0.1404
     54 H17        -2.5130   -1.0392   -9.6243 H         1 <0>         0.1638
     55 H18         3.1849   -0.2137  -10.7188 H         1 <0>         0.1391
     56 H19         3.4963    0.1397  -13.1083 H         1 <0>         0.1372
     57 H20        -0.6992   -0.2867  -13.7999 H         1 <0>         0.1471
     58 H21         3.3529    1.2579  -14.8552 H         1 <0>         0.0584
     59 H22         3.5650   -0.4941  -15.0873 H         1 <0>         0.0584
     60 H23         2.9721    0.5159  -16.4277 H         1 <0>         0.1037
@<TRIPOS>BOND
     1    1    2 1
     2    1   38 1
     3    1   39 1
     4    1   40 1
     5    2    7 1
     6    2    3 2
     7    3    4 1
     8    3   15 1
     9    4    5 2
    10    4    6 am
    11    6    7 1
    12    6    9 1
    13    7    8 1
    14    8   41 1
    15    8   42 1
    16    8   43 1
    17    9   14 ar
    18    9   10 ar
    19   10   11 ar
    20   10   44 1
    21   11   12 ar
    22   11   45 1
    23   12   13 ar
    24   12   46 1
    25   13   14 ar
    26   13   47 1
    27   14   48 1
    28   15   16 2
    29   15   17 am
    30   17   18 1
    31   17   49 1
    32   18   23 ar
    33   18   19 ar
    34   19   20 ar
    35   19   50 1
    36   20   21 ar
    37   20   51 1
    38   21   22 ar
    39   21   25 1
    40   22   23 ar
    41   22   24 1
    42   23   52 1
    43   25   26 1
    44   26   31 ar
    45   26   27 ar
    46   27   28 ar
    47   27   53 1
    48   28   29 ar
    49   28   54 1
    50   29   30 ar
    51   30   35 ar
    52   30   31 ar
    53   31   32 ar
    54   32   33 ar
    55   32   55 1
    56   33   34 ar
    57   33   56 1
    58   34   35 ar
    59   34   36 1
    60   35   57 1
    61   36   37 1
    62   37   58 1
    63   37   59 1
    64   37   60 1
@<TRIPOS>MOLECULE
CHEMBL430026
   65    69     0     0     0
SMALL
USER_CHARGES

@<TRIPOS>ATOM
      1 C1          0.1869    0.1195   -0.8005 C.3       1 <0>        -0.1169
      2 C2         -1.0025   -0.0043    0.1167 C.ar      1 <0>        -0.1025
      3 C3         -2.2024    0.5964   -0.2246 C.ar      1 <0>        -0.0579
      4 C4         -3.2992    0.4885    0.6094 C.ar      1 <0>        -0.1576
      5 C5         -3.2042   -0.2214    1.7927 C.ar      1 <0>         0.1598
      6 C6         -1.9948   -0.8301    2.1422 C.ar      1 <0>        -0.1748
      7 C7         -0.8938   -0.7199    1.2899 C.ar      1 <0>        -0.0584
      8 C8         -1.8838   -1.5900    3.4034 C.2       1 <0>         0.5618
      9 O1         -2.8455   -1.6877    4.1410 O.2       1 <0>        -0.4958
     10 N1         -0.7165   -2.1753    3.7370 N.am      1 <0>        -0.6682
     11 C9         -0.5812   -2.8105    4.9773 C.ar      1 <0>         0.1892
     12 C10         0.6297   -2.7592    5.6555 C.ar      1 <0>        -0.1415
     13 C11         0.7637   -3.3860    6.8787 C.ar      1 <0>        -0.0588
     14 C12        -0.3107   -4.0671    7.4312 C.ar      1 <0>         0.0320
     15 C13        -1.5228   -4.1195    6.7541 C.ar      1 <0>         0.1398
     16 C14        -1.6593   -3.4872    5.5321 C.ar      1 <0>        -0.1489
     17 F1         -2.5691   -4.7836    7.2919 F         1 <0>        -0.1221
     18 O2         -0.1777   -4.6841    8.6359 O.3       1 <0>        -0.2135
     19 C15         0.1644   -5.9936    8.6447 C.2       1 <0>         0.4670
     20 C16         0.4142   -6.6579    9.8648 C.2       1 <0>        -0.0675
     21 C17         0.3944   -6.2636   11.1899 C.2       1 <0>        -0.0797
     22 C18         0.7346   -7.3838   11.9540 C.2       1 <0>         0.0653
     23 C19         0.9521   -8.4231   11.0995 C.2       1 <0>        -0.0111
     24 N2          0.7609   -7.9955    9.8296 N.pl3     1 <0>        -0.2301
     25 N3          0.8479   -8.6274    8.5811 N.2       1 <0>        -0.3278
     26 C20         0.6041   -7.9534    7.4907 C.2       1 <0>         0.3232
     27 N4          0.2630   -6.6660    7.5119 N.2       1 <0>        -0.6020
     28 O3          0.8318   -7.4285   13.3113 O.3       1 <0>        -0.2718
     29 C21         1.1951   -8.6814   13.8947 C.3       1 <0>         0.0649
     30 C22         1.2535   -8.5373   15.4168 C.3       1 <0>         0.0556
     31 N5         -0.0842   -8.2123   15.9296 N.3       1 <0>        -0.5295
     32 C23        -0.0045   -7.6260   17.2754 C.3       1 <0>         0.0190
     33 C24        -1.4116   -7.2484   17.7458 C.3       1 <0>         0.0626
     34 O4         -2.2483   -8.4077   17.7091 O.3       1 <0>        -0.3856
     35 C25        -2.3490   -9.0041   16.4131 C.3       1 <0>         0.0634
     36 C26        -0.9514   -9.3995   15.9291 C.3       1 <0>         0.0146
     37 C27         0.0683   -4.8878   11.7113 C.3       1 <0>        -0.0808
     38 F2         -4.2762   -0.3260    2.6082 F         1 <0>        -0.1124
     39 H1          0.1820   -0.7037   -1.5149 H         1 <0>         0.0767
     40 H2          0.1348    1.0667   -1.3372 H         1 <0>         0.0730
     41 H3          1.1042    0.0849   -0.2126 H         1 <0>         0.0712
     42 H4         -2.2816    1.1525   -1.1470 H         1 <0>         0.1415
     43 H5         -4.2320    0.9597    0.3369 H         1 <0>         0.1471
     44 H6          0.0422   -1.1912    1.5514 H         1 <0>         0.1360
     45 H7          0.0299   -2.1564    3.1178 H         1 <0>         0.4156
     46 H8          1.4669   -2.2291    5.2260 H         1 <0>         0.1450
     47 H9          1.7059   -3.3462    7.4052 H         1 <0>         0.1473
     48 H10        -2.6025   -3.5235    5.0074 H         1 <0>         0.1610
     49 H11         1.2323   -9.4252   11.3887 H         1 <0>         0.1811
     50 H12         0.6763   -8.4581    6.5386 H         1 <0>         0.2244
     51 H13         0.4532   -9.4346   13.6293 H         1 <0>         0.0607
     52 H14         2.1725   -8.9865   13.5209 H         1 <0>         0.0661
     53 H15         1.5938   -9.4743   15.8577 H         1 <0>         0.0614
     54 H16         1.9473   -7.7388   15.6799 H         1 <0>         0.0891
     55 H17         0.4268   -8.3526   17.9640 H         1 <0>         0.0429
     56 H18         0.6215   -6.7341   17.2473 H         1 <0>         0.0889
     57 H19        -1.3641   -6.8660   18.7655 H         1 <0>         0.0988
     58 H20        -1.8220   -6.4823   17.0879 H         1 <0>         0.0620
     59 H21        -2.9795   -9.8915   16.4689 H         1 <0>         0.0980
     60 H22        -2.7867   -8.2891   15.7164 H         1 <0>         0.0616
     61 H23        -1.0166   -9.8022   14.9184 H         1 <0>         0.0852
     62 H24        -0.5353  -10.1544   16.5962 H         1 <0>         0.0439
     63 H25        -1.0029   -4.8151   11.8993 H         1 <0>         0.0728
     64 H26         0.6127   -4.7125   12.6392 H         1 <0>         0.0756
     65 H27         0.3591   -4.1409   10.9727 H         1 <0>         0.0700
@<TRIPOS>BOND
     1    1    2 1
     2    1   39 1
     3    1   40 1
     4    1   41 1
     5    2    7 ar
     6    2    3 ar
     7    3    4 ar
     8    3   42 1
     9    4    5 ar
    10    4   43 1
    11    5    6 ar
    12    5   38 1
    13    6    7 ar
    14    6    8 1
    15    7   44 1
    16    8    9 2
    17    8   10 am
    18   10   11 1
    19   10   45 1
    20   11   16 ar
    21   11   12 ar
    22   12   13 ar
    23   12   46 1
    24   13   14 ar
    25   13   47 1
    26   14   15 ar
    27   14   18 1
    28   15   16 ar
    29   15   17 1
    30   16   48 1
    31   18   19 1
    32   19   27 2
    33   19   20 1
    34   20   24 1
    35   20   21 2
    36   21   22 1
    37   21   37 1
    38   22   23 2
    39   22   28 1
    40   23   24 1
    41   23   49 1
    42   24   25 1
    43   25   26 2
    44   26   27 1
    45   26   50 1
    46   28   29 1
    47   29   30 1
    48   29   51 1
    49   29   52 1
    50   30   31 1
    51   30   53 1
    52   30   54 1
    53   31   36 1
    54   31   32 1
    55   32   33 1
    56   32   55 1
    57   32   56 1
    58   33   34 1
    59   33   57 1
    60   33   58 1
    61   34   35 1
    62   35   36 1
    63   35   59 1
    64   35   60 1
    65   36   61 1
    66   36   62 1
    67   37   63 1
    68   37   64 1
    69   37   65 1
@<TRIPOS>MOLECULE
CHEMBL430026__1
   66    70     0     0     0
SMALL
USER_CHARGES

@<TRIPOS>ATOM
      1 C1         -0.1787   -1.2194   -1.4182 C.3       1 <0>        -0.1178
      2 C2         -1.3556   -1.2961   -0.4801 C.ar      1 <0>        -0.1011
      3 C3         -2.5708   -0.7460   -0.8512 C.ar      1 <0>        -0.0556
      4 C4         -3.6564   -0.8115    0.0016 C.ar      1 <0>        -0.1567
      5 C5         -3.5348   -1.4279    1.2339 C.ar      1 <0>         0.1603
      6 C6         -2.3098   -1.9852    1.6138 C.ar      1 <0>        -0.1779
      7 C7         -1.2203   -1.9188    0.7423 C.ar      1 <0>        -0.0586
      8 C8         -2.1704   -2.6453    2.9272 C.2       1 <0>         0.5642
      9 O1         -3.1221   -2.7053    3.6816 O.2       1 <0>        -0.4960
     10 N1         -0.9881   -3.1813    3.2900 N.am      1 <0>        -0.6696
     11 C9         -0.8246   -3.7106    4.5756 C.ar      1 <0>         0.1975
     12 C10         0.3940   -3.5829    5.2295 C.ar      1 <0>        -0.1414
     13 C11         0.5560   -4.1054    6.4976 C.ar      1 <0>        -0.0565
     14 C12        -0.4981   -4.7577    7.1195 C.ar      1 <0>         0.0216
     15 C13        -1.7179   -4.8865    6.4668 C.ar      1 <0>         0.1415
     16 C14        -1.8824   -4.3586    5.1996 C.ar      1 <0>        -0.1492
     17 F1         -2.7445   -5.5227    7.0723 F         1 <0>        -0.1234
     18 O2         -0.3376   -5.2719    8.3683 O.3       1 <0>        -0.2112
     19 C15         0.0207   -6.5724    8.4787 C.2       1 <0>         0.4673
     20 C16         0.2989   -7.1311    9.7447 C.2       1 <0>        -0.0593
     21 C17         0.2963   -6.6292   11.0330 C.2       1 <0>        -0.0717
     22 C18         0.6629   -7.6789   11.8805 C.2       1 <0>         0.0404
     23 C19         0.8790   -8.7826   11.1107 C.2       1 <0>        -0.0019
     24 N2          0.6615   -8.4632    9.8135 N.pl3     1 <0>        -0.2242
     25 N3          0.7354   -9.1949    8.6199 N.2       1 <0>        -0.3288
     26 C20         0.4652   -8.6157    7.4822 C.2       1 <0>         0.3374
     27 N4          0.1088   -7.3348    7.4034 N.2       1 <0>        -0.5920
     28 O3          0.7832   -7.6105   13.2350 O.3       1 <0>        -0.3020
     29 C21         1.1716   -8.8070   13.9130 C.3       1 <0>         0.0238
     30 C22         1.2535   -8.5373   15.4168 C.3       1 <0>         0.0012
     31 N5         -0.0842   -8.2123   15.9296 N.4       1 <0>        -0.3873
     32 C23         0.0137   -7.8261   17.3439 C.3       1 <0>        -0.0434
     33 C24        -1.3813   -7.4878   17.8757 C.3       1 <0>         0.0351
     34 O4         -2.2405   -8.6174   17.6979 O.3       1 <0>        -0.3562
     35 C25        -2.3495   -9.0469   16.3379 C.3       1 <0>         0.0368
     36 C26        -0.9564   -9.3881   15.8033 C.3       1 <0>        -0.0500
     37 C27        -0.0381   -5.2188   11.4453 C.3       1 <0>        -0.0864
     38 F2         -4.5958   -1.4910    2.0678 F         1 <0>        -0.1127
     39 H1         -0.1747   -2.0942   -2.0684 H         1 <0>         0.0775
     40 H2         -0.2554   -0.3166   -2.0242 H         1 <0>         0.0741
     41 H3          0.7452   -1.1919   -0.8405 H         1 <0>         0.0713
     42 H4         -2.6708   -0.2630   -1.8120 H         1 <0>         0.1429
     43 H5         -4.6013   -0.3802   -0.2944 H         1 <0>         0.1482
     44 H6         -0.2724   -2.3509    1.0274 H         1 <0>         0.1355
     45 H7         -0.2506   -3.2002    2.6602 H         1 <0>         0.4172
     46 H8          1.2154   -3.0750    4.7460 H         1 <0>         0.1474
     47 H9          1.5041   -4.0062    7.0051 H         1 <0>         0.1473
     48 H10        -2.8317   -4.4540    4.6935 H         1 <0>         0.1633
     49 H11         1.1763   -9.7543   11.4764 H         1 <0>         0.1830
     50 H12         0.5279   -9.1964    6.5737 H         1 <0>         0.2308
     51 H13         0.4348   -9.5875   13.7234 H         1 <0>         0.0851
     52 H14         2.1463   -9.1311   13.5484 H         1 <0>         0.1105
     53 H15         1.6317   -9.4243   15.9249 H         1 <0>         0.1507
     54 H16         1.9261   -7.6993   15.5996 H         1 <0>         0.1456
     55 H17         0.4312   -8.6529   17.9186 H         1 <0>         0.1399
     56 H18         0.6604   -6.9538   17.4387 H         1 <0>         0.1443
     57 H19        -1.3171   -7.2426   18.9359 H         1 <0>         0.1429
     58 H20        -1.7828   -6.6352   17.3280 H         1 <0>         0.0822
     59 H21        -2.9861   -9.9301   16.2851 H         1 <0>         0.1422
     60 H22        -2.7841   -8.2477   15.7375 H         1 <0>         0.0823
     61 H23        -1.0298   -9.6754   14.7544 H         1 <0>         0.1407
     62 H24        -0.5385  -10.2143   16.3785 H         1 <0>         0.1411
     63 H25        -1.1068   -5.1425   11.6454 H         1 <0>         0.0752
     64 H26         0.5195   -4.9616   12.3458 H         1 <0>         0.0735
     65 H27         0.2312   -4.5322   10.6427 H         1 <0>         0.0780
     66 H28        -0.4717   -7.4473   15.3978 H         1 <0>         0.4310
@<TRIPOS>BOND
     1    1    2 1
     2    1   39 1
     3    1   40 1
     4    1   41 1
     5    2    7 ar
     6    2    3 ar
     7    3    4 ar
     8    3   42 1
     9    4    5 ar
    10    4   43 1
    11    5    6 ar
    12    5   38 1
    13    6    7 ar
    14    6    8 1
    15    7   44 1
    16    8    9 2
    17    8   10 am
    18   10   11 1
    19   10   45 1
    20   11   16 ar
    21   11   12 ar
    22   12   13 ar
    23   12   46 1
    24   13   14 ar
    25   13   47 1
    26   14   15 ar
    27   14   18 1
    28   15   16 ar
    29   15   17 1
    30   16   48 1
    31   18   19 1
    32   19   27 2
    33   19   20 1
    34   20   24 1
    35   20   21 2
    36   21   22 1
    37   21   37 1
    38   22   23 2
    39   22   28 1
    40   23   24 1
    41   23   49 1
    42   24   25 1
    43   25   26 2
    44   26   27 1
    45   26   50 1
    46   28   29 1
    47   29   30 1
    48   29   51 1
    49   29   52 1
    50   30   31 1
    51   30   53 1
    52   30   54 1
    53   31   36 1
    54   31   32 1
    55   31   66 1
    56   32   33 1
    57   32   55 1
    58   32   56 1
    59   33   34 1
    60   33   57 1
    61   33   58 1
    62   34   35 1
    63   35   36 1
    64   35   59 1
    65   35   60 1
    66   36   61 1
    67   36   62 1
    68   37   63 1
    69   37   64 1
    70   37   65 1
@<TRIPOS>MOLECULE
CHEMBL461119
   59    62     0     0     0
SMALL
USER_CHARGES

@<TRIPOS>ATOM
      1 C1         -1.4910    0.0716   -1.7261 C.3       1 <0>         0.0229
      2 O1         -0.6645   -0.5905   -0.7667 O.3       1 <0>        -0.2998
      3 C2          0.6807   -0.5002   -0.9437 C.ar      1 <0>         0.1182
      4 C3          1.1772    0.2063   -2.0008 C.ar      1 <0>        -0.1584
      5 C4          2.5650    0.2998   -2.1830 C.ar      1 <0>        -0.1044
      6 C5          3.1153    1.0229   -3.2651 C.ar      1 <0>         0.1779
      7 C6          4.4936    1.0709   -3.3794 C.ar      1 <0>        -0.2664
      8 C7          5.2855    0.4182   -2.4432 C.ar      1 <0>         0.1633
      9 N1          4.7640   -0.2507   -1.4417 N.ar      1 <0>        -0.4885
     10 C8          3.4396   -0.3386   -1.2702 C.ar      1 <0>         0.1725
     11 C9          2.8983   -1.0587   -0.1924 C.ar      1 <0>        -0.1799
     12 C10         1.5441   -1.1289   -0.0352 C.ar      1 <0>         0.1541
     13 O2          1.0258   -1.8218    1.0126 O.3       1 <0>        -0.2983
     14 C11         1.9551   -2.4407    1.9044 C.3       1 <0>         0.0202
     15 O3          2.3174    1.6500   -4.1642 O.3       1 <0>        -0.2384
     16 C12         2.9110    2.4004   -5.1302 C.ar      1 <0>         0.0084
     17 C13         2.9344    3.7893   -5.0290 C.ar      1 <0>        -0.0416
     18 C14         3.5490    4.5130   -6.0348 C.ar      1 <0>        -0.1801
     19 C15         4.1191    3.8347   -7.1060 C.ar      1 <0>         0.3667
     20 N2          4.0776    2.5138   -7.1692 N.ar      1 <0>        -0.4581
     21 C16         3.5050    1.7924   -6.2245 C.ar      1 <0>         0.1351
     22 N3          4.7418    4.5551   -8.1263 N.am      1 <0>        -0.6561
     23 C17         5.2001    3.9151   -9.2203 C.2       1 <0>         0.6839
     24 O4          5.1609    2.7016   -9.2755 O.2       1 <0>        -0.4485
     25 N4          5.7020    4.6207  -10.2531 N.am      1 <0>        -0.6764
     26 C18         6.1603    3.9806  -11.3471 C.2       1 <0>         0.5118
     27 O5          6.1211    2.7702  -11.4021 O.2       1 <0>        -0.4498
     28 C19         6.7214    4.7696  -12.5019 C.3       1 <0>        -0.0233
     29 N5          7.1498    3.8479  -13.5625 N.4       1 <0>        -0.3844
     30 C20         5.9682    3.1939  -14.1809 C.3       1 <0>        -0.0116
     31 C21         6.4973    2.7416  -15.5651 C.3       1 <0>        -0.1436
     32 C22         7.4338    3.9019  -15.9732 C.3       1 <0>        -0.1447
     33 C23         7.8123    4.5969  -14.6523 C.3       1 <0>        -0.0074
     34 H1         -1.2664    1.1382   -1.7247 H         1 <0>         0.0578
     35 H2         -1.2977   -0.3390   -2.7172 H         1 <0>         0.0581
     36 H3         -2.5393   -0.0793   -1.4684 H         1 <0>         0.1063
     37 H4          0.5050    0.6906   -2.6936 H         1 <0>         0.1490
     38 H5          4.9516    1.6134   -4.1932 H         1 <0>         0.1355
     39 H6          6.3600    0.4621   -2.5424 H         1 <0>         0.1624
     40 H7          3.5516   -1.5516    0.5123 H         1 <0>         0.1557
     41 H8          1.4110   -2.9594    2.6936 H         1 <0>         0.1077
     42 H9          2.5659   -3.1561    1.3536 H         1 <0>         0.0616
     43 H10         2.5974   -1.6788    2.3461 H         1 <0>         0.0616
     44 H11         2.4828    4.2896   -4.1851 H         1 <0>         0.1556
     45 H12         3.5852    5.5914   -5.9887 H         1 <0>         0.1510
     46 H13         3.4950    0.7156   -6.3074 H         1 <0>         0.1711
     47 H14         4.8448    5.5164   -8.0481 H         1 <0>         0.4215
     48 H15         5.7333    5.5892  -10.2091 H         1 <0>         0.4192
     49 H16         5.9547    5.4398  -12.8908 H         1 <0>         0.1662
     50 H17         7.5761    5.3541  -12.1614 H         1 <0>         0.1670
     51 H18         5.6514    2.3342  -13.5904 H         1 <0>         0.1460
     52 H19         5.1506    3.9056  -14.2953 H         1 <0>         0.1325
     53 H20         7.0541    1.8085  -15.4790 H         1 <0>         0.1003
     54 H21         5.6778    2.6388  -16.2764 H         1 <0>         0.1187
     55 H22         8.3254    3.5132  -16.4653 H         1 <0>         0.1076
     56 H23         6.9108    4.5969  -16.6301 H         1 <0>         0.1059
     57 H24         7.4603    5.6284  -14.6612 H         1 <0>         0.1342
     58 H25         8.8935    4.5719  -14.5161 H         1 <0>         0.1365
     59 H26         7.7769    3.1523  -13.1871 H         1 <0>         0.4356
@<TRIPOS>BOND
     1    1    2 1
     2    1   34 1
     3    1   35 1
     4    1   36 1
     5    2    3 1
     6    3   12 ar
     7    3    4 ar
     8    4    5 ar
     9    4   37 1
    10    5   10 ar
    11    5    6 ar
    12    6    7 ar
    13    6   15 1
    14    7    8 ar
    15    7   38 1
    16    8    9 ar
    17    8   39 1
    18    9   10 ar
    19   10   11 ar
    20   11   12 ar
    21   11   40 1
    22   12   13 1
    23   13   14 1
    24   14   41 1
    25   14   42 1
    26   14   43 1
    27   15   16 1
    28   16   21 ar
    29   16   17 ar
    30   17   18 ar
    31   17   44 1
    32   18   19 ar
    33   18   45 1
    34   19   20 ar
    35   19   22 1
    36   20   21 ar
    37   21   46 1
    38   22   23 am
    39   22   47 1
    40   23   24 2
    41   23   25 am
    42   25   26 am
    43   25   48 1
    44   26   27 2
    45   26   28 1
    46   28   29 1
    47   28   49 1
    48   28   50 1
    49   29   33 1
    50   29   30 1
    51   29   59 1
    52   30   31 1
    53   30   51 1
    54   30   52 1
    55   31   32 1
    56   31   53 1
    57   31   54 1
    58   32   33 1
    59   32   55 1
    60   32   56 1
    61   33   57 1
    62   33   58 1
@<TRIPOS>MOLECULE
CHEMBL461119__1
   60    63     0     0     0
SMALL
USER_CHARGES

@<TRIPOS>ATOM
      1 C1         -1.4910    0.0716   -1.7261 C.3       1 <0>         0.0148
      2 O1         -0.6645   -0.5905   -0.7667 O.3       1 <0>        -0.2842
      3 C2          0.6807   -0.5002   -0.9437 C.ar      1 <0>         0.1393
      4 C3          1.1772    0.2063   -2.0008 C.ar      1 <0>        -0.1406
      5 C4          2.5650    0.2998   -2.1830 C.ar      1 <0>        -0.0870
      6 C5          3.1153    1.0229   -3.2651 C.ar      1 <0>         0.2770
      7 C6          4.4936    1.0709   -3.3794 C.ar      1 <0>        -0.2664
      8 C7          5.2855    0.4182   -2.4432 C.ar      1 <0>         0.2272
      9 N1          4.7640   -0.2507   -1.4417 N.ar      1 <0>        -0.4779
     10 C8          3.4396   -0.3386   -1.2702 C.ar      1 <0>         0.1825
     11 C9          2.8983   -1.0587   -0.1924 C.ar      1 <0>        -0.2361
     12 C10         1.5441   -1.1289   -0.0352 C.ar      1 <0>         0.2196
     13 O2          1.0258   -1.8218    1.0126 O.3       1 <0>        -0.2753
     14 C11         1.9551   -2.4407    1.9044 C.3       1 <0>         0.0107
     15 O3          2.3174    1.6500   -4.1642 O.3       1 <0>        -0.2043
     16 C12         2.9110    2.4004   -5.1302 C.ar      1 <0>        -0.0381
     17 C13         2.9344    3.7893   -5.0290 C.ar      1 <0>        -0.0250
     18 C14         3.5490    4.5130   -6.0348 C.ar      1 <0>        -0.1803
     19 C15         4.1191    3.8347   -7.1060 C.ar      1 <0>         0.3919
     20 N2          4.0776    2.5138   -7.1692 N.ar      1 <0>        -0.4568
     21 C16         3.5050    1.7924   -6.2245 C.ar      1 <0>         0.1490
     22 N3          4.7418    4.5551   -8.1263 N.am      1 <0>        -0.6569
     23 C17         5.2001    3.9151   -9.2203 C.2       1 <0>         0.6873
     24 O4          5.1609    2.7016   -9.2755 O.2       1 <0>        -0.4480
     25 N4          5.7020    4.6207  -10.2531 N.am      1 <0>        -0.6766
     26 C18         6.1603    3.9806  -11.3471 C.2       1 <0>         0.5137
     27 O5          6.1211    2.7702  -11.4021 O.2       1 <0>        -0.4482
     28 C19         6.7214    4.7696  -12.5019 C.3       1 <0>        -0.0232
     29 N5          7.1498    3.8479  -13.5625 N.4       1 <0>        -0.3847
     30 C20         5.9682    3.1939  -14.1809 C.3       1 <0>        -0.0117
     31 C21         6.4973    2.7416  -15.5651 C.3       1 <0>        -0.1437
     32 C22         7.4338    3.9019  -15.9732 C.3       1 <0>        -0.1453
     33 C23         7.8123    4.5969  -14.6523 C.3       1 <0>        -0.0075
     34 H1         -1.2664    1.1382   -1.7247 H         1 <0>         0.0670
     35 H2         -1.2977   -0.3390   -2.7172 H         1 <0>         0.0674
     36 H3         -2.5393   -0.0793   -1.4684 H         1 <0>         0.1201
     37 H4          0.5050    0.6906   -2.6936 H         1 <0>         0.1729
     38 H5          4.9516    1.6134   -4.1932 H         1 <0>         0.1784
     39 H6          6.3600    0.4621   -2.5424 H         1 <0>         0.2120
     40 H7          3.5516   -1.5516    0.5123 H         1 <0>         0.1729
     41 H8          2.5974   -1.6788    2.3461 H         1 <0>         0.0705
     42 H9          1.4110   -2.9594    2.6936 H         1 <0>         0.1236
     43 H10         2.5659   -3.1561    1.3536 H         1 <0>         0.0704
     44 H11         2.4828    4.2896   -4.1851 H         1 <0>         0.1614
     45 H12         3.5852    5.5914   -5.9887 H         1 <0>         0.1596
     46 H13         3.4950    0.7156   -6.3074 H         1 <0>         0.1749
     47 H14         4.8448    5.5164   -8.0481 H         1 <0>         0.4258
     48 H15         5.7333    5.5892  -10.2091 H         1 <0>         0.4217
     49 H16         5.9547    5.4398  -12.8908 H         1 <0>         0.1678
     50 H17         7.5761    5.3541  -12.1614 H         1 <0>         0.1683
     51 H18         5.6514    2.3342  -13.5904 H         1 <0>         0.1449
     52 H19         5.1506    3.9056  -14.2953 H         1 <0>         0.1328
     53 H20         7.0541    1.8085  -15.4790 H         1 <0>         0.1006
     54 H21         5.6778    2.6388  -16.2764 H         1 <0>         0.1197
     55 H22         8.3254    3.5132  -16.4653 H         1 <0>         0.1088
     56 H23         6.9108    4.5969  -16.6301 H         1 <0>         0.1071
     57 H24         7.4603    5.6284  -14.6612 H         1 <0>         0.1350
     58 H25         8.8935    4.5719  -14.5161 H         1 <0>         0.1374
     59 H26         7.7769    3.1523  -13.1871 H         1 <0>         0.4352
     60 H27         5.3531   -0.6922   -0.8101 H         1 <0>         0.4491
@<TRIPOS>BOND
     1    1    2 1
     2    1   34 1
     3    1   35 1
     4    1   36 1
     5    2    3 1
     6    3   12 ar
     7    3    4 ar
     8    4    5 ar
     9    4   37 1
    10    5   10 ar
    11    5    6 ar
    12    6    7 ar
    13    6   15 1
    14    7    8 ar
    15    7   38 1
    16    8    9 ar
    17    8   39 1
    18    9   10 ar
    19    9   60 1
    20   10   11 ar
    21   11   12 ar
    22   11   40 1
    23   12   13 1
    24   13   14 1
    25   14   41 1
    26   14   42 1
    27   14   43 1
    28   15   16 1
    29   16   21 ar
    30   16   17 ar
    31   17   18 ar
    32   17   44 1
    33   18   19 ar
    34   18   45 1
    35   19   20 ar
    36   19   22 1
    37   20   21 ar
    38   21   46 1
    39   22   23 am
    40   22   47 1
    41   23   24 2
    42   23   25 am
    43   25   26 am
    44   25   48 1
    45   26   27 2
    46   26   28 1
    47   28   29 1
    48   28   49 1
    49   28   50 1
    50   29   33 1
    51   29   30 1
    52   29   59 1
    53   30   31 1
    54   30   51 1
    55   30   52 1
    56   31   32 1
    57   31   53 1
    58   31   54 1
    59   32   33 1
    60   32   55 1
    61   32   56 1
    62   33   57 1
    63   33   58 1
@<TRIPOS>MOLECULE
CHEMBL400332
   61    64     0     0     0
SMALL
USER_CHARGES

@<TRIPOS>ATOM
      1 C1         -0.0742    1.4479    0.0075 C.3       1 <0>        -0.0848
      2 C2          0.0436   -0.0545    0.0122 C.2       1 <0>        -0.0746
      3 C3          0.0971   -0.8883   -1.1087 C.2       1 <0>         0.0500
      4 C4          0.2033   -2.1740   -0.6693 C.2       1 <0>        -0.0066
      5 N1          0.2183   -2.1763    0.6841 N.pl3     1 <0>        -0.2270
      6 C5          0.1253   -0.8698    1.1258 C.2       1 <0>        -0.0618
      7 C6          0.1278   -0.6262    2.5161 C.2       1 <0>         0.4677
      8 N2          0.2213   -1.6466    3.3500 N.2       1 <0>        -0.5955
      9 C7          0.3134   -2.9011    2.9118 C.2       1 <0>         0.3334
     10 N3          0.3088   -3.1971    1.6409 N.2       1 <0>        -0.3298
     11 O1          0.0359    0.6384    2.9896 O.3       1 <0>        -0.2116
     12 C8         -0.0627    0.8108    4.3351 C.ar      1 <0>         0.0265
     13 C9         -1.3102    0.9307    4.9290 C.ar      1 <0>        -0.0570
     14 C10        -1.4115    1.1054    6.2952 C.ar      1 <0>        -0.1382
     15 C11        -0.2641    1.1616    7.0756 C.ar      1 <0>         0.1916
     16 C12         0.9855    1.0417    6.4820 C.ar      1 <0>        -0.1487
     17 C13         1.0860    0.8611    5.1149 C.ar      1 <0>         0.1415
     18 F1          2.3010    0.7387    4.5370 F         1 <0>        -0.1222
     19 N4         -0.3672    1.3396    8.4604 N.am      1 <0>        -0.6617
     20 C14         0.5561    2.0700    9.1166 C.2       1 <0>         0.5745
     21 O2          1.5239    2.5033    8.5213 O.2       1 <0>        -0.4876
     22 C15         0.3927    2.3437   10.5569 C.ar      1 <0>        -0.2110
     23 C16         0.9324    1.4679   11.5052 C.ar      1 <0>         0.1670
     24 C17         0.7750    1.7324   12.8526 C.ar      1 <0>        -0.1614
     25 C18         0.0863    2.8588   13.2645 C.ar      1 <0>        -0.0353
     26 C19        -0.4505    3.7299   12.3339 C.ar      1 <0>        -0.1615
     27 C20        -0.2979    3.4837   10.9824 C.ar      1 <0>         0.1683
     28 F2         -0.8186    4.3385   10.0750 F         1 <0>        -0.1191
     29 F3          1.6051    0.3668   11.1049 F         1 <0>        -0.1194
     30 O3          0.0509   -0.4869   -2.4089 O.3       1 <0>        -0.2869
     31 C21         0.1207   -1.5082   -3.4059 C.3       1 <0>         0.0614
     32 C22         0.0547   -0.8702   -4.7950 C.3       1 <0>        -0.1508
     33 C23         0.1294   -1.9637   -5.8625 C.3       1 <0>        -0.0075
     34 N5          0.0661   -1.3511   -7.1962 N.4       1 <0>        -0.3859
     35 C24         1.2570   -0.5179   -7.4094 C.3       1 <0>        -0.0546
     36 C25         0.0171   -2.4057   -8.2177 C.3       1 <0>        -0.0473
     37 H1          0.9218    1.8903   -0.0101 H         1 <0>         0.0753
     38 H2         -0.6287    1.7661   -0.8754 H         1 <0>         0.0741
     39 H3         -0.6008    1.7739    0.9044 H         1 <0>         0.0752
     40 H4          0.2655   -3.0492   -1.2991 H         1 <0>         0.1811
     41 H5          0.3881   -3.7013    3.6332 H         1 <0>         0.2288
     42 H6         -2.2030    0.8878    4.3228 H         1 <0>         0.1482
     43 H7         -2.3834    1.1987    6.7568 H         1 <0>         0.1477
     44 H8          1.8781    1.0853    7.0884 H         1 <0>         0.1616
     45 H9         -1.1032    0.9373    8.9476 H         1 <0>         0.4210
     46 H10         1.1906    1.0572   13.5860 H         1 <0>         0.1547
     47 H11        -0.0334    3.0592   14.3190 H         1 <0>         0.1547
     48 H12        -0.9869    4.6072   12.6642 H         1 <0>         0.1547
     49 H13         1.0579   -2.0548   -3.3013 H         1 <0>         0.0710
     50 H14        -0.7164   -2.1952   -3.2815 H         1 <0>         0.0712
     51 H15        -0.8825   -0.3237   -4.8997 H         1 <0>         0.1000
     52 H16         0.8918   -0.1832   -4.9194 H         1 <0>         0.1002
     53 H17         1.0667   -2.5102   -5.7579 H         1 <0>         0.1338
     54 H18        -0.7076   -2.6507   -5.7381 H         1 <0>         0.1351
     55 H19         1.2100   -0.0633   -8.3990 H         1 <0>         0.1261
     56 H20         1.2933    0.2647   -6.6515 H         1 <0>         0.1261
     57 H21         2.1513   -1.1367   -7.3359 H         1 <0>         0.1235
     58 H22        -0.8665   -3.0240   -8.0595 H         1 <0>         0.1242
     59 H23        -0.0298   -1.9512   -9.2072 H         1 <0>         0.1261
     60 H24         0.9114   -3.0245   -8.1441 H         1 <0>         0.1227
     61 H25        -0.7617   -0.7783   -7.2643 H         1 <0>         0.4287
@<TRIPOS>BOND
     1    1    2 1
     2    1   37 1
     3    1   38 1
     4    1   39 1
     5    2    6 2
     6    2    3 1
     7    3    4 2
     8    3   30 1
     9    4    5 1
    10    4   40 1
    11    5   10 1
    12    5    6 1
    13    6    7 1
    14    7    8 2
    15    7   11 1
    16    8    9 1
    17    9   10 2
    18    9   41 1
    19   11   12 1
    20   12   17 ar
    21   12   13 ar
    22   13   14 ar
    23   13   42 1
    24   14   15 ar
    25   14   43 1
    26   15   16 ar
    27   15   19 1
    28   16   17 ar
    29   16   44 1
    30   17   18 1
    31   19   20 am
    32   19   45 1
    33   20   21 2
    34   20   22 1
    35   22   27 ar
    36   22   23 ar
    37   23   24 ar
    38   23   29 1
    39   24   25 ar
    40   24   46 1
    41   25   26 ar
    42   25   47 1
    43   26   27 ar
    44   26   48 1
    45   27   28 1
    46   30   31 1
    47   31   32 1
    48   31   49 1
    49   31   50 1
    50   32   33 1
    51   32   51 1
    52   32   52 1
    53   33   34 1
    54   33   53 1
    55   33   54 1
    56   34   35 1
    57   34   36 1
    58   34   61 1
    59   35   55 1
    60   35   56 1
    61   35   57 1
    62   36   58 1
    63   36   59 1
    64   36   60 1
@<TRIPOS>MOLECULE
CHEMBL490965
   56    60     0     0     0
SMALL
USER_CHARGES

@<TRIPOS>ATOM
      1 C1          1.3881    0.3546    1.0509 C.3       1 <0>         0.0692
      2 N1          0.3323   -0.2363    0.2248 N.pl3     1 <0>        -0.4590
      3 C2          0.5022   -1.1721   -0.7560 C.2       1 <0>        -0.0158
      4 C3         -0.7337   -1.4366   -1.2614 C.2       1 <0>         0.0625
      5 N2         -1.6216   -0.6711   -0.5922 N.2       1 <0>        -0.4699
      6 C4         -0.9885    0.0401    0.2975 C.2       1 <0>         0.1965
      7 C5         -1.0469   -2.3899   -2.3471 C.2       1 <0>        -0.0121
      8 C6         -2.2554   -2.6866   -2.8907 C.2       1 <0>        -0.1343
      9 C7         -2.3465   -3.6328   -3.9287 C.ar      1 <0>         0.1649
     10 C8         -1.1217   -4.2116   -4.3270 C.ar      1 <0>        -0.2090
     11 S1          0.0709   -3.4291   -3.2721 S.3       1 <0>         0.1030
     12 C9         -1.0544   -5.1558   -5.3345 C.ar      1 <0>         0.2119
     13 C10        -2.2430   -5.5301   -5.9592 C.ar      1 <0>        -0.2391
     14 C11        -3.4222   -4.9388   -5.5390 C.ar      1 <0>         0.1594
     15 N3         -3.4569   -4.0468   -4.5814 N.ar      1 <0>        -0.4774
     16 O1          0.1325   -5.7012   -5.7044 O.3       1 <0>        -0.2373
     17 C12         0.1164   -6.6989   -6.6284 C.ar      1 <0>         0.0270
     18 C13         0.0734   -8.0230   -6.2183 C.ar      1 <0>        -0.0668
     19 C14         0.0565   -9.0370   -7.1559 C.ar      1 <0>        -0.1150
     20 C15         0.0831   -8.7315   -8.5102 C.ar      1 <0>         0.1991
     21 C16         0.1263   -7.4064   -8.9220 C.ar      1 <0>        -0.1700
     22 C17         0.1373   -6.3915   -7.9831 C.ar      1 <0>         0.1210
     23 F1          0.1740   -5.1015   -8.3828 F         1 <0>        -0.1205
     24 N4          0.0670   -9.7605   -9.4609 N.am      1 <0>        -0.6783
     25 C18        -0.6420  -10.8827   -9.2274 C.2       1 <0>         0.6960
     26 O2         -1.2091  -11.0328   -8.1629 O.2       1 <0>        -0.5052
     27 N5         -0.7221  -11.8385  -10.1742 N.am      1 <0>        -0.6893
     28 C19        -1.4310  -12.9607   -9.9407 C.2       1 <0>         0.5158
     29 O3         -1.9967  -13.1104   -8.8789 O.2       1 <0>        -0.4476
     30 C20        -1.5206  -14.0294  -10.9994 C.3       1 <0>        -0.0957
     31 C21        -2.3646  -15.1700  -10.4917 C.ar      1 <0>        -0.0803
     32 C22        -1.7740  -16.2154   -9.8067 C.ar      1 <0>        -0.1028
     33 C23        -2.5483  -17.2616   -9.3410 C.ar      1 <0>        -0.1187
     34 C24        -3.9132  -17.2622   -9.5599 C.ar      1 <0>        -0.1142
     35 C25        -4.5039  -16.2163  -10.2442 C.ar      1 <0>        -0.1185
     36 C26        -3.7302  -15.1680  -10.7061 C.ar      1 <0>        -0.1027
     37 H1          1.5303   -0.2504    1.9463 H         1 <0>         0.0826
     38 H2          2.3180    0.3875    0.4832 H         1 <0>         0.0896
     39 H3          1.1015    1.3664    1.3377 H         1 <0>         0.0935
     40 H4          1.4357   -1.6155   -1.0696 H         1 <0>         0.1825
     41 H5         -1.4456    0.7403    0.9810 H         1 <0>         0.2140
     42 H6         -3.1464   -2.1970   -2.5264 H         1 <0>         0.1546
     43 H7         -2.2440   -6.2634   -6.7521 H         1 <0>         0.1470
     44 H8         -4.3469   -5.2237   -6.0187 H         1 <0>         0.1666
     45 H9          0.0533   -8.2615   -5.1651 H         1 <0>         0.1499
     46 H10         0.0230  -10.0678   -6.8356 H         1 <0>         0.1579
     47 H11         0.1470   -7.1684   -9.9752 H         1 <0>         0.1510
     48 H12         0.5660   -9.6653  -10.2873 H         1 <0>         0.4146
     49 H13        -0.2695  -11.7187  -11.0238 H         1 <0>         0.4133
     50 H14        -1.9751  -13.6131  -11.8984 H         1 <0>         0.1119
     51 H15        -0.5203  -14.3938  -11.2334 H         1 <0>         0.1120
     52 H16        -0.7077  -16.2149   -9.6357 H         1 <0>         0.1206
     53 H17        -2.0868  -18.0787   -8.8064 H         1 <0>         0.1238
     54 H18        -4.5180  -18.0799   -9.1967 H         1 <0>         0.1232
     55 H19        -5.5702  -16.2170  -10.4155 H         1 <0>         0.1239
     56 H20        -4.1923  -14.3491  -11.2374 H         1 <0>         0.1207
@<TRIPOS>BOND
     1    1    2 1
     2    1   37 1
     3    1   38 1
     4    1   39 1
     5    2    6 1
     6    2    3 1
     7    3    4 2
     8    3   40 1
     9    4    5 1
    10    4    7 1
    11    5    6 2
    12    6   41 1
    13    7   11 1
    14    7    8 2
    15    8    9 1
    16    8   42 1
    17    9   15 ar
    18    9   10 ar
    19   10   11 1
    20   10   12 ar
    21   12   13 ar
    22   12   16 1
    23   13   14 ar
    24   13   43 1
    25   14   15 ar
    26   14   44 1
    27   16   17 1
    28   17   22 ar
    29   17   18 ar
    30   18   19 ar
    31   18   45 1
    32   19   20 ar
    33   19   46 1
    34   20   21 ar
    35   20   24 1
    36   21   22 ar
    37   21   47 1
    38   22   23 1
    39   24   25 am
    40   24   48 1
    41   25   26 2
    42   25   27 am
    43   27   28 am
    44   27   49 1
    45   28   29 2
    46   28   30 1
    47   30   31 1
    48   30   50 1
    49   30   51 1
    50   31   36 ar
    51   31   32 ar
    52   32   33 ar
    53   32   52 1
    54   33   34 ar
    55   33   53 1
    56   34   35 ar
    57   34   54 1
    58   35   36 ar
    59   35   55 1
    60   36   56 1
@<TRIPOS>MOLECULE
CHEMBL490965__1
   57    61     0     0     0
SMALL
USER_CHARGES

@<TRIPOS>ATOM
      1 C1          1.3881    0.3546    1.0509 C.3       1 <0>         0.0535
      2 N1          0.3323   -0.2363    0.2248 N.pl3     1 <0>        -0.4045
      3 C2          0.5022   -1.1721   -0.7560 C.2       1 <0>         0.0474
      4 C3         -0.7337   -1.4366   -1.2614 C.2       1 <0>         0.1247
      5 N2         -1.6216   -0.6711   -0.5922 N.pl3     1 <0>        -0.4727
      6 C4         -0.9885    0.0401    0.2975 C.cat     1 <0>         0.3043
      7 C5         -1.0469   -2.3899   -2.3471 C.2       1 <0>        -0.1213
      8 C6         -2.2554   -2.6866   -2.8907 C.2       1 <0>        -0.0820
      9 C7         -2.3465   -3.6328   -3.9287 C.ar      1 <0>         0.1380
     10 C8         -1.1217   -4.2116   -4.3270 C.ar      1 <0>        -0.1937
     11 S1          0.0709   -3.4291   -3.2721 S.3       1 <0>         0.1710
     12 C9         -1.0544   -5.1558   -5.3345 C.ar      1 <0>         0.2102
     13 C10        -2.2430   -5.5301   -5.9592 C.ar      1 <0>        -0.2127
     14 C11        -3.4222   -4.9388   -5.5390 C.ar      1 <0>         0.1674
     15 N3         -3.4569   -4.0468   -4.5814 N.ar      1 <0>        -0.4685
     16 O1          0.1325   -5.7012   -5.7044 O.3       1 <0>        -0.2329
     17 C12         0.1164   -6.6989   -6.6284 C.ar      1 <0>         0.0126
     18 C13         0.0734   -8.0230   -6.2183 C.ar      1 <0>        -0.0636
     19 C14         0.0565   -9.0370   -7.1559 C.ar      1 <0>        -0.1150
     20 C15         0.0831   -8.7315   -8.5102 C.ar      1 <0>         0.2097
     21 C16         0.1263   -7.4064   -8.9220 C.ar      1 <0>        -0.1700
     22 C17         0.1373   -6.3915   -7.9831 C.ar      1 <0>         0.1240
     23 F1          0.1740   -5.1015   -8.3828 F         1 <0>        -0.1210
     24 N4          0.0670   -9.7605   -9.4609 N.am      1 <0>        -0.6795
     25 C18        -0.6420  -10.8827   -9.2274 C.2       1 <0>         0.6976
     26 O2         -1.2091  -11.0328   -8.1629 O.2       1 <0>        -0.5063
     27 N5         -0.7221  -11.8385  -10.1742 N.am      1 <0>        -0.6888
     28 C19        -1.4310  -12.9607   -9.9407 C.2       1 <0>         0.5166
     29 O3         -1.9967  -13.1104   -8.8789 O.2       1 <0>        -0.4473
     30 C20        -1.5206  -14.0294  -10.9994 C.3       1 <0>        -0.0955
     31 C21        -2.3646  -15.1700  -10.4917 C.ar      1 <0>        -0.0819
     32 C22        -1.7740  -16.2154   -9.8067 C.ar      1 <0>        -0.1027
     33 C23        -2.5483  -17.2616   -9.3410 C.ar      1 <0>        -0.1182
     34 C24        -3.9132  -17.2622   -9.5599 C.ar      1 <0>        -0.1131
     35 C25        -4.5039  -16.2163  -10.2442 C.ar      1 <0>        -0.1183
     36 C26        -3.7302  -15.1680  -10.7061 C.ar      1 <0>        -0.1029
     37 H1          1.5303   -0.2504    1.9463 H         1 <0>         0.1146
     38 H2          2.3180    0.3875    0.4832 H         1 <0>         0.1204
     39 H3          1.1015    1.3664    1.3377 H         1 <0>         0.1193
     40 H4          1.4357   -1.6155   -1.0696 H         1 <0>         0.2279
     41 H5         -1.4456    0.7403    0.9810 H         1 <0>         0.2683
     42 H6         -3.1464   -2.1970   -2.5264 H         1 <0>         0.1498
     43 H7         -2.2440   -6.2634   -6.7521 H         1 <0>         0.1569
     44 H8         -4.3469   -5.2237   -6.0187 H         1 <0>         0.1765
     45 H9          0.0533   -8.2615   -5.1651 H         1 <0>         0.1502
     46 H10         0.0230  -10.0678   -6.8356 H         1 <0>         0.1609
     47 H11         0.1470   -7.1684   -9.9752 H         1 <0>         0.1542
     48 H12         0.5660   -9.6653  -10.2873 H         1 <0>         0.4167
     49 H13        -0.2695  -11.7187  -11.0238 H         1 <0>         0.4145
     50 H14        -1.9751  -13.6131  -11.8984 H         1 <0>         0.1126
     51 H15        -0.5203  -14.3938  -11.2334 H         1 <0>         0.1129
     52 H16        -0.7077  -16.2149   -9.6357 H         1 <0>         0.1206
     53 H17        -2.0868  -18.0787   -8.8064 H         1 <0>         0.1244
     54 H18        -4.5180  -18.0799   -9.1967 H         1 <0>         0.1240
     55 H19        -5.5702  -16.2170  -10.4155 H         1 <0>         0.1243
     56 H20        -4.1923  -14.3491  -11.2374 H         1 <0>         0.1204
     57 H21        -2.5792   -0.6559   -0.7463 H         1 <0>         0.4660
@<TRIPOS>BOND
     1    1    2 1
     2    1   37 1
     3    1   38 1
     4    1   39 1
     5    2    6 1
     6    2    3 1
     7    3    4 2
     8    3   40 1
     9    4    5 1
    10    4    7 1
    11    5    6 2
    12    5   57 1
    13    6   41 1
    14    7   11 1
    15    7    8 2
    16    8    9 1
    17    8   42 1
    18    9   15 ar
    19    9   10 ar
    20   10   11 1
    21   10   12 ar
    22   12   13 ar
    23   12   16 1
    24   13   14 ar
    25   13   43 1
    26   14   15 ar
    27   14   44 1
    28   16   17 1
    29   17   22 ar
    30   17   18 ar
    31   18   19 ar
    32   18   45 1
    33   19   20 ar
    34   19   46 1
    35   20   21 ar
    36   20   24 1
    37   21   22 ar
    38   21   47 1
    39   22   23 1
    40   24   25 am
    41   24   48 1
    42   25   26 2
    43   25   27 am
    44   27   28 am
    45   27   49 1
    46   28   29 2
    47   28   30 1
    48   30   31 1
    49   30   50 1
    50   30   51 1
    51   31   36 ar
    52   31   32 ar
    53   32   33 ar
    54   32   52 1
    55   33   34 ar
    56   33   53 1
    57   34   35 ar
    58   34   54 1
    59   35   36 ar
    60   35   55 1
    61   36   56 1
@<TRIPOS>MOLECULE
CHEMBL552195
   30    32     0     0     0
SMALL
USER_CHARGES

@<TRIPOS>ATOM
      1 C1          0.0293    1.4388    0.1483 C.ar      1 <0>        -0.0580
      2 C2          1.2186    2.0775   -0.1505 C.ar      1 <0>        -0.0951
      3 C3          2.3785    1.3418   -0.3042 C.ar      1 <0>        -0.0161
      4 C4          2.3496   -0.0328   -0.1587 C.ar      1 <0>        -0.6175
      5 C5          1.1609   -0.6712    0.1409 C.ar      1 <0>         0.0538
      6 C6          0.0003    0.0646    0.2933 C.ar      1 <0>        -0.0793
      7 N1          1.1297   -2.1429    0.2958 N.pl3     1 <0>        -0.0056
      8 O1          1.6538   -2.8493   -0.5338 O.2       1 <0>        -0.0862
      9 O2          0.5803   -2.6387    1.2518 O.3       1 <0>        -0.1473
     10 S1          3.8280   -0.9709   -0.3557 S.o2      1 <0>         2.5922
     11 O3          3.5298   -2.0101   -1.2779 O.2       1 <0>        -0.8920
     12 O4          4.8759   -0.0363   -0.5740 O.2       1 <0>        -0.9210
     13 C7          4.1611   -1.7491    1.1896 C.2       1 <0>        -0.7593
     14 C8          4.1634   -3.0685    1.4364 C.2       1 <0>         0.2302
     15 N2          4.4655   -3.2964    2.7523 N.pl3     1 <0>        -0.5605
     16 H1          4.5264   -4.1719    3.1654 H         1 <0>         0.4318
     17 C9          4.6702   -2.1027    3.4017 C.ar      1 <0>         0.2845
     18 C10         4.4945   -1.0809    2.4487 C.ar      1 <0>        -0.0854
     19 C11         4.6497    0.2523    2.8345 C.ar      1 <0>        -0.0437
     20 C12         4.9770    0.5137    4.1519 C.ar      1 <0>        -0.1787
     21 C13         5.1384   -0.5421    5.0356 C.ar      1 <0>         0.1386
     22 N3          4.9800   -1.7915    4.6532 N.ar      1 <0>        -0.4858
     23 H2         -0.8762    2.0142    0.2728 H         1 <0>         0.1570
     24 H3          1.2411    3.1513   -0.2642 H         1 <0>         0.1558
     25 H4          3.3073    1.8406   -0.5383 H         1 <0>         0.1680
     26 H5         -0.9286   -0.4342    0.5270 H         1 <0>         0.1550
     27 H6          3.9570   -3.8364    0.7056 H         1 <0>         0.2091
     28 H7          4.5183    1.0554    2.1245 H         1 <0>         0.1396
     29 H8          5.1062    1.5313    4.4896 H         1 <0>         0.1470
     30 H9          5.3941   -0.3342    6.0641 H         1 <0>         0.1692
@<TRIPOS>BOND
     1    1    6 ar
     2    1    2 ar
     3    1   23 1
     4    2    3 ar
     5    2   24 1
     6    3    4 ar
     7    3   25 1
     8    4    5 ar
     9    4   10 1
    10    5    6 ar
    11    5    7 1
    12    6   26 1
    13    7    8 2
    14    7    9 1
    15   10   11 2
    16   10   12 2
    17   10   13 1
    18   13   18 1
    19   13   14 2
    20   14   15 1
    21   14   27 1
    22   15   16 1
    23   15   17 1
    24   17   22 ar
    25   17   18 ar
    26   18   19 ar
    27   19   20 ar
    28   19   28 1
    29   20   21 ar
    30   20   29 1
    31   21   22 ar
    32   21   30 1
@<TRIPOS>MOLECULE
CHEMBL401344
   69    73     0     0     0
SMALL
USER_CHARGES

@<TRIPOS>ATOM
      1 C1         -0.2004    2.6097   -0.2917 C.3       1 <0>        -0.0799
      2 C2         -0.0547    1.1269   -0.0654 C.2       1 <0>        -0.0811
      3 C3          0.0420    0.1405   -1.0513 C.2       1 <0>         0.0653
      4 C4          0.1605   -1.0652   -0.4269 C.2       1 <0>        -0.0117
      5 N1          0.1417   -0.8704    0.9124 N.pl3     1 <0>        -0.2299
      6 C5          0.0147    0.4842    1.1567 C.2       1 <0>        -0.0667
      7 C6         -0.0213    0.9273    2.4964 C.2       1 <0>         0.4655
      8 N2          0.0700    0.0412    3.4719 N.2       1 <0>        -0.5999
      9 C7          0.1955   -1.2614    3.2235 C.2       1 <0>         0.3243
     10 N3          0.2272   -1.7391    2.0095 N.2       1 <0>        -0.3277
     11 O1         -0.1477    2.2450    2.7783 O.3       1 <0>        -0.2140
     12 C8         -0.2824    2.6091    4.0817 C.ar      1 <0>         0.0277
     13 C9         -1.5461    2.7847    4.6255 C.ar      1 <0>        -0.0566
     14 C10        -1.6839    3.1543    5.9489 C.ar      1 <0>        -0.1463
     15 C11        -0.5572    3.3506    6.7366 C.ar      1 <0>         0.1943
     16 C12         0.7084    3.1747    6.1935 C.ar      1 <0>        -0.1548
     17 C13         0.8458    2.7994    4.8699 C.ar      1 <0>         0.1423
     18 F1          2.0767    2.6229    4.3418 F         1 <0>        -0.1225
     19 N4         -0.6976    3.7264    8.0786 N.am      1 <0>        -0.6735
     20 C14         0.2271    3.3501    8.9840 C.2       1 <0>         0.5111
     21 O2          1.1321    2.6122    8.6558 O.2       1 <0>        -0.4622
     22 C15         0.1367    3.8461   10.4042 C.3       1 <0>        -0.1624
     23 C16         1.2814    3.2833   11.2067 C.2       1 <0>         0.5109
     24 O3          2.0910    2.5515   10.6775 O.2       1 <0>        -0.4693
     25 N5          1.4055    3.5933   12.5124 N.am      1 <0>        -0.6747
     26 C17         2.5184    3.1464   13.2354 C.ar      1 <0>         0.1361
     27 C18         2.3873    2.8113   14.5765 C.ar      1 <0>        -0.1157
     28 C19         3.4862    2.3708   15.2878 C.ar      1 <0>        -0.1337
     29 C20         4.7181    2.2636   14.6645 C.ar      1 <0>         0.0849
     30 C21         4.8509    2.5973   13.3272 C.ar      1 <0>        -0.1323
     31 C22         3.7532    3.0323   12.6107 C.ar      1 <0>        -0.0914
     32 F2          5.7920    1.8333   15.3623 F         1 <0>        -0.1385
     33 O4          0.0210    0.3475   -2.3968 O.3       1 <0>        -0.2721
     34 C23         0.1343   -0.8061   -3.2325 C.3       1 <0>         0.0649
     35 C24         0.0915   -0.3783   -4.7009 C.3       1 <0>         0.0557
     36 N6          1.2586    0.4620   -5.0003 N.3       1 <0>        -0.5296
     37 C25         1.0372    1.2572   -6.2168 C.3       1 <0>         0.0190
     38 C26         2.2501    2.1597   -6.4579 C.3       1 <0>         0.0627
     39 O5          3.4281    1.3535   -6.5451 O.3       1 <0>        -0.3857
     40 C27         3.6747    0.5662   -5.3768 C.3       1 <0>         0.0635
     41 C28         2.4762   -0.3525   -5.1248 C.3       1 <0>         0.0145
     42 H1          0.7873    3.0668   -0.3520 H         1 <0>         0.0724
     43 H2         -0.7388    2.7839   -1.2233 H         1 <0>         0.0752
     44 H3         -0.7550    3.0509    0.5364 H         1 <0>         0.0697
     45 H4          0.2538   -2.0211   -0.9208 H         1 <0>         0.1809
     46 H5          0.2670   -1.9464    4.0554 H         1 <0>         0.2245
     47 H6         -2.4229    2.6326    4.0135 H         1 <0>         0.1466
     48 H7         -2.6684    3.2912    6.3714 H         1 <0>         0.1443
     49 H8          1.5849    3.3271    6.8057 H         1 <0>         0.1596
     50 H9         -1.4603    4.2575    8.3563 H         1 <0>         0.4167
     51 H10         0.1876    4.9348   10.4127 H         1 <0>         0.1340
     52 H11        -0.8076    3.5231   10.8424 H         1 <0>         0.1321
     53 H12         0.7240    4.1259   12.9514 H         1 <0>         0.4125
     54 H13         1.4269    2.8954   15.0631 H         1 <0>         0.1369
     55 H14         3.3847    2.1100   16.3309 H         1 <0>         0.1407
     56 H15         5.8126    2.5134   12.8430 H         1 <0>         0.1402
     57 H16         3.8562    3.2882   11.5665 H         1 <0>         0.1447
     58 H17         1.0784   -1.3112   -3.0286 H         1 <0>         0.0607
     59 H18        -0.6930   -1.4856   -3.0278 H         1 <0>         0.0660
     60 H19         0.1076   -1.2628   -5.3376 H         1 <0>         0.0614
     61 H20        -0.8212    0.1875   -4.8880 H         1 <0>         0.0891
     62 H21         0.9049    0.5901   -7.0686 H         1 <0>         0.0428
     63 H22         0.1453    1.8715   -6.0928 H         1 <0>         0.0889
     64 H23         2.1154    2.7093   -7.3895 H         1 <0>         0.0987
     65 H24         2.3507    2.8628   -5.6311 H         1 <0>         0.0619
     66 H25         4.5703   -0.0368   -5.5266 H         1 <0>         0.0981
     67 H26         3.8166    1.2230   -4.5186 H         1 <0>         0.0616
     68 H27         2.6348   -0.9132   -4.2036 H         1 <0>         0.0853
     69 H28         2.3669   -1.0453   -5.9591 H         1 <0>         0.0440
@<TRIPOS>BOND
     1    1    2 1
     2    1   42 1
     3    1   43 1
     4    1   44 1
     5    2    6 2
     6    2    3 1
     7    3    4 2
     8    3   33 1
     9    4    5 1
    10    4   45 1
    11    5   10 1
    12    5    6 1
    13    6    7 1
    14    7    8 2
    15    7   11 1
    16    8    9 1
    17    9   10 2
    18    9   46 1
    19   11   12 1
    20   12   17 ar
    21   12   13 ar
    22   13   14 ar
    23   13   47 1
    24   14   15 ar
    25   14   48 1
    26   15   16 ar
    27   15   19 1
    28   16   17 ar
    29   16   49 1
    30   17   18 1
    31   19   20 am
    32   19   50 1
    33   20   21 2
    34   20   22 1
    35   22   23 1
    36   22   51 1
    37   22   52 1
    38   23   24 2
    39   23   25 am
    40   25   26 1
    41   25   53 1
    42   26   31 ar
    43   26   27 ar
    44   27   28 ar
    45   27   54 1
    46   28   29 ar
    47   28   55 1
    48   29   30 ar
    49   29   32 1
    50   30   31 ar
    51   30   56 1
    52   31   57 1
    53   33   34 1
    54   34   35 1
    55   34   58 1
    56   34   59 1
    57   35   36 1
    58   35   60 1
    59   35   61 1
    60   36   41 1
    61   36   37 1
    62   37   38 1
    63   37   62 1
    64   37   63 1
    65   38   39 1
    66   38   64 1
    67   38   65 1
    68   39   40 1
    69   40   41 1
    70   40   66 1
    71   40   67 1
    72   41   68 1
    73   41   69 1
@<TRIPOS>MOLECULE
CHEMBL401344__1
   70    74     0     0     0
SMALL
USER_CHARGES

@<TRIPOS>ATOM
      1 C1          1.9917    2.2590   -0.7283 C.3       1 <0>        -0.0856
      2 C2          1.9006    0.7890   -0.4094 C.2       1 <0>        -0.0728
      3 C3          1.5611   -0.2355   -1.2979 C.2       1 <0>         0.0402
      4 C4          1.5950   -1.4128   -0.6122 C.2       1 <0>        -0.0025
      5 N1          1.9430   -1.1637    0.6719 N.pl3     1 <0>        -0.2240
      6 C5          2.1427    0.1965    0.8161 C.2       1 <0>        -0.0588
      7 C6          2.5222    0.6919    2.0822 C.2       1 <0>         0.4658
      8 N2          2.6779   -0.1531    3.0856 N.2       1 <0>        -0.5902
      9 C7          2.4858   -1.4623    2.9331 C.2       1 <0>         0.3383
     10 N3          2.1264   -1.9854    1.7930 N.2       1 <0>        -0.3288
     11 O1          2.7246    2.0175    2.2659 O.3       1 <0>        -0.2116
     12 C8          2.9866    2.4546    3.5268 C.ar      1 <0>         0.0161
     13 C9          1.9486    2.8774    4.3437 C.ar      1 <0>        -0.0536
     14 C10         2.2137    3.3214    5.6243 C.ar      1 <0>        -0.1478
     15 C11         3.5199    3.3451    6.0951 C.ar      1 <0>         0.2030
     16 C12         4.5597    2.9217    5.2785 C.ar      1 <0>        -0.1587
     17 C13         4.2933    2.4722    3.9983 C.ar      1 <0>         0.1446
     18 F1          5.3039    2.0551    3.2046 F         1 <0>        -0.1237
     19 N4          3.7882    3.7964    7.3937 N.am      1 <0>        -0.6730
     20 C14         4.8711    3.3417    8.0549 C.2       1 <0>         0.5129
     21 O2          5.5626    2.4753    7.5626 O.2       1 <0>        -0.4612
     22 C15         5.2227    3.9096    9.4057 C.3       1 <0>        -0.1633
     23 C16         6.4666    3.2362    9.9255 C.2       1 <0>         0.5115
     24 O3          7.0138    2.3794    9.2641 O.2       1 <0>        -0.4716
     25 N5          6.9710    3.5861   11.1253 N.am      1 <0>        -0.6739
     26 C17         8.1861    3.0422   11.5596 C.ar      1 <0>         0.1342
     27 C18         8.3845    2.7711   12.9068 C.ar      1 <0>        -0.1140
     28 C19         9.5837    2.2347   13.3331 C.ar      1 <0>        -0.1332
     29 C20        10.5880    1.9677   12.4179 C.ar      1 <0>         0.0870
     30 C21        10.3922    2.2374   11.0739 C.ar      1 <0>        -0.1331
     31 C22         9.1922    2.7680   10.6427 C.ar      1 <0>        -0.0908
     32 F2         11.7607    1.4438   12.8370 F         1 <0>        -0.1374
     33 O4          1.2509   -0.0839   -2.6150 O.3       1 <0>        -0.3018
     34 C23         0.9318   -1.2691   -3.3469 C.3       1 <0>         0.0237
     35 C24         0.6133   -0.9022   -4.7977 C.3       1 <0>         0.0012
     36 N6          1.8213   -0.3743   -5.4458 N.4       1 <0>        -0.3872
     37 C25         1.4886    0.0871   -6.8006 C.3       1 <0>        -0.0434
     38 C26         2.7487    0.6368   -7.4737 C.3       1 <0>         0.0353
     39 O5          3.7530   -0.3813   -7.4973 O.3       1 <0>        -0.3563
     40 C27         4.0946   -0.8806   -6.2012 C.3       1 <0>         0.0370
     41 C28         2.8370   -1.4331   -5.5258 C.3       1 <0>        -0.0503
     42 H1          3.0033    2.4976   -1.0567 H         1 <0>         0.0747
     43 H2          1.2851    2.5032   -1.5215 H         1 <0>         0.0732
     44 H3          1.7526    2.8396    0.1627 H         1 <0>         0.0777
     45 H4          1.3788   -2.3866   -1.0261 H         1 <0>         0.1827
     46 H5          2.6260   -2.1125    3.7840 H         1 <0>         0.2309
     47 H6          0.9325    2.8596    3.9781 H         1 <0>         0.1461
     48 H7          1.4048    3.6508    6.2596 H         1 <0>         0.1466
     49 H8          5.5758    2.9398    5.6442 H         1 <0>         0.1655
     50 H9          3.1948    4.4363    7.8171 H         1 <0>         0.4186
     51 H10         5.4008    4.9811    9.3142 H         1 <0>         0.1352
     52 H11         4.3991    3.7361   10.0984 H         1 <0>         0.1333
     53 H12         6.4924    4.2147   11.6881 H         1 <0>         0.4130
     54 H13         7.6017    2.9798   13.6210 H         1 <0>         0.1374
     55 H14         9.7383    2.0236   14.3809 H         1 <0>         0.1418
     56 H15        11.1769    2.0288   10.3617 H         1 <0>         0.1402
     57 H16         9.0382    2.9741    9.5938 H         1 <0>         0.1427
     58 H17         1.7818   -1.9510   -3.3227 H         1 <0>         0.0850
     59 H18         0.0653   -1.7525   -2.8957 H         1 <0>         0.1105
     60 H19         0.2735   -1.7902   -5.3308 H         1 <0>         0.1507
     61 H20        -0.1702   -0.1447   -4.8173 H         1 <0>         0.1457
     62 H21         1.0996   -0.7476   -7.3837 H         1 <0>         0.1398
     63 H22         0.7352    0.8727   -6.7424 H         1 <0>         0.1443
     64 H23         2.5136    0.9400   -8.4939 H         1 <0>         0.1428
     65 H24         3.1151    1.4967   -6.9130 H         1 <0>         0.0822
     66 H25         4.8336   -1.6756   -6.3005 H         1 <0>         0.1422
     67 H26         4.5071   -0.0726   -5.5969 H         1 <0>         0.0823
     68 H27         3.0846   -1.7761   -4.5212 H         1 <0>         0.1409
     69 H28         2.4475   -2.2673   -6.1094 H         1 <0>         0.1412
     70 H29         2.1823    0.3982   -4.9063 H         1 <0>         0.4309
@<TRIPOS>BOND
     1    1    2 1
     2    1   42 1
     3    1   43 1
     4    1   44 1
     5    2    6 2
     6    2    3 1
     7    3    4 2
     8    3   33 1
     9    4    5 1
    10    4   45 1
    11    5   10 1
    12    5    6 1
    13    6    7 1
    14    7    8 2
    15    7   11 1
    16    8    9 1
    17    9   10 2
    18    9   46 1
    19   11   12 1
    20   12   17 ar
    21   12   13 ar
    22   13   14 ar
    23   13   47 1
    24   14   15 ar
    25   14   48 1
    26   15   16 ar
    27   15   19 1
    28   16   17 ar
    29   16   49 1
    30   17   18 1
    31   19   20 am
    32   19   50 1
    33   20   21 2
    34   20   22 1
    35   22   23 1
    36   22   51 1
    37   22   52 1
    38   23   24 2
    39   23   25 am
    40   25   26 1
    41   25   53 1
    42   26   31 ar
    43   26   27 ar
    44   27   28 ar
    45   27   54 1
    46   28   29 ar
    47   28   55 1
    48   29   30 ar
    49   29   32 1
    50   30   31 ar
    51   30   56 1
    52   31   57 1
    53   33   34 1
    54   34   35 1
    55   34   58 1
    56   34   59 1
    57   35   36 1
    58   35   60 1
    59   35   61 1
    60   36   41 1
    61   36   37 1
    62   36   70 1
    63   37   38 1
    64   37   62 1
    65   37   63 1
    66   38   39 1
    67   38   64 1
    68   38   65 1
    69   39   40 1
    70   40   41 1
    71   40   66 1
    72   40   67 1
    73   41   68 1
    74   41   69 1
@<TRIPOS>MOLECULE
CHEMBL502544
   66    70     0     0     0
SMALL
USER_CHARGES

@<TRIPOS>ATOM
      1 C1         -6.9968   -0.0189    2.4739 C.ar      1 <0>        -0.0727
      2 C2         -7.8749    0.8529    3.0893 C.ar      1 <0>        -0.1521
      3 C3         -7.6610    2.2187    3.0133 C.ar      1 <0>         0.1064
      4 C4         -6.5672    2.7095    2.3205 C.ar      1 <0>        -0.1516
      5 C5         -5.6904    1.8359    1.7059 C.ar      1 <0>        -0.0724
      6 C6         -5.9050    0.4723    1.7825 C.ar      1 <0>        -0.0932
      7 C7         -4.9481   -0.4793    1.1119 C.3       1 <0>        -0.0940
      8 C8         -5.4065   -0.7410   -0.2996 C.2       1 <0>         0.5157
      9 O1         -6.4109   -0.2074   -0.7195 O.2       1 <0>        -0.4476
     10 N1         -4.6999   -1.5681   -1.0952 N.am      1 <0>        -0.6884
     11 C9         -5.1099   -1.8021   -2.3576 C.2       1 <0>         0.6958
     12 O2         -6.1168   -1.2672   -2.7786 O.2       1 <0>        -0.5063
     13 N2         -4.4032   -2.6292   -3.1532 N.am      1 <0>        -0.6792
     14 C10        -4.8728   -2.9371   -4.4369 C.ar      1 <0>         0.2037
     15 C11        -4.6729   -4.2063   -4.9634 C.ar      1 <0>        -0.1398
     16 C12        -5.1351   -4.5102   -6.2290 C.ar      1 <0>        -0.0686
     17 C13        -5.7996   -3.5482   -6.9748 C.ar      1 <0>         0.0187
     18 C14        -6.0004   -2.2779   -6.4495 C.ar      1 <0>         0.1216
     19 C15        -5.5428   -1.9750   -5.1803 C.ar      1 <0>        -0.1470
     20 F1         -6.6473   -1.3405   -7.1762 F         1 <0>        -0.1215
     21 O3         -6.2544   -3.8484   -8.2209 O.3       1 <0>        -0.2117
     22 C16        -5.4489   -3.5710   -9.2770 C.ar      1 <0>         0.2092
     23 C17        -4.2417   -2.9026   -9.1018 C.ar      1 <0>        -0.2637
     24 C18        -3.4494   -2.6395  -10.2041 C.ar      1 <0>         0.1866
     25 N3         -3.8104   -3.0062  -11.4168 N.ar      1 <0>        -0.5055
     26 C19        -4.9511   -3.6468  -11.6446 C.ar      1 <0>         0.3112
     27 C20        -5.8039   -3.9534  -10.5742 C.ar      1 <0>        -0.1331
     28 C21        -6.9581   -4.6593  -11.1604 C.2       1 <0>        -0.2614
     29 C22        -6.7203   -4.7299  -12.5060 C.2       1 <0>         0.1580
     30 N4         -5.5426   -4.1270  -12.7923 N.pl3     1 <0>        -0.5467
     31 H1         -5.1629   -4.0520  -13.6817 H         1 <0>         0.4364
     32 C23        -8.0880   -5.1639  -10.4684 C.2       1 <0>         0.4103
     33 O4         -8.1715   -5.0314   -9.2645 O.2       1 <0>        -0.4265
     34 C24        -9.1853   -5.8647  -11.2272 C.3       1 <0>        -0.0565
     35 N5        -10.2341   -6.2897  -10.2906 N.4       1 <0>        -0.3788
     36 C25        -9.6975   -7.3213   -9.3775 C.3       1 <0>        -0.0063
     37 C26       -10.8778   -8.2975   -9.1462 C.3       1 <0>        -0.1814
     38 C27       -11.5458   -8.3189  -10.5462 C.3       1 <0>         0.0931
     39 C28       -11.3642   -6.8683  -11.0403 C.3       1 <0>        -0.0099
     40 O5        -12.9327   -8.6464  -10.4394 O.3       1 <0>        -0.5481
     41 F2         -8.5191    3.0719    3.6141 F         1 <0>        -0.1367
     42 H2         -7.1610   -1.0845    2.5369 H         1 <0>         0.1319
     43 H3         -8.7279    0.4689    3.6291 H         1 <0>         0.1382
     44 H4         -6.3996    3.7747    2.2602 H         1 <0>         0.1386
     45 H5         -4.8374    2.2185    1.1652 H         1 <0>         0.1324
     46 H6         -3.9509   -0.0397    1.0945 H         1 <0>         0.1155
     47 H7         -4.9217   -1.4181    1.6652 H         1 <0>         0.1151
     48 H8         -3.8963   -1.9950   -0.7593 H         1 <0>         0.4146
     49 H9         -3.5696   -3.0114   -2.8371 H         1 <0>         0.4169
     50 H10        -4.1555   -4.9561   -4.3833 H         1 <0>         0.1468
     51 H11        -4.9787   -5.4974   -6.6381 H         1 <0>         0.1469
     52 H12        -5.7028   -0.9892   -4.7693 H         1 <0>         0.1633
     53 H13        -3.9270   -2.5923   -8.1163 H         1 <0>         0.1472
     54 H14        -2.5122   -2.1204  -10.0677 H         1 <0>         0.1757
     55 H15        -7.3766   -5.1889  -13.2306 H         1 <0>         0.1964
     56 H16        -9.6104   -5.1828  -11.9637 H         1 <0>         0.1613
     57 H17        -8.7756   -6.7381  -11.7346 H         1 <0>         0.1601
     58 H18        -8.8604   -7.8417   -9.8429 H         1 <0>         0.1312
     59 H19        -9.3880   -6.8699   -8.4349 H         1 <0>         0.1470
     60 H20       -10.5168   -9.2883   -8.8706 H         1 <0>         0.1204
     61 H21       -11.5632   -7.9097   -8.3925 H         1 <0>         0.1086
     62 H22       -11.0334   -9.0181  -11.2070 H         1 <0>         0.0978
     63 H23       -12.2704   -6.2943  -10.8465 H         1 <0>         0.1452
     64 H24       -11.1417   -6.8651  -12.1073 H         1 <0>         0.1426
     65 H25       -13.1025   -9.5201  -10.0615 H         1 <0>         0.4051
     66 H26       -10.5529   -5.4969   -9.7541 H         1 <0>         0.4356
@<TRIPOS>BOND
     1    1    6 ar
     2    1    2 ar
     3    1   42 1
     4    2    3 ar
     5    2   43 1
     6    3    4 ar
     7    3   41 1
     8    4    5 ar
     9    4   44 1
    10    5    6 ar
    11    5   45 1
    12    6    7 1
    13    7    8 1
    14    7   46 1
    15    7   47 1
    16    8    9 2
    17    8   10 am
    18   10   11 am
    19   10   48 1
    20   11   12 2
    21   11   13 am
    22   13   14 1
    23   13   49 1
    24   14   19 ar
    25   14   15 ar
    26   15   16 ar
    27   15   50 1
    28   16   17 ar
    29   16   51 1
    30   17   18 ar
    31   17   21 1
    32   18   19 ar
    33   18   20 1
    34   19   52 1
    35   21   22 1
    36   22   27 ar
    37   22   23 ar
    38   23   24 ar
    39   23   53 1
    40   24   25 ar
    41   24   54 1
    42   25   26 ar
    43   26   30 1
    44   26   27 ar
    45   27   28 1
    46   28   29 2
    47   28   32 1
    48   29   30 1
    49   29   55 1
    50   30   31 1
    51   32   33 2
    52   32   34 1
    53   34   35 1
    54   34   56 1
    55   34   57 1
    56   35   39 1
    57   35   36 1
    58   35   66 1
    59   36   37 1
    60   36   58 1
    61   36   59 1
    62   37   38 1
    63   37   60 1
    64   37   61 1
    65   38   39 1
    66   38   40 1
    67   38   62 1
    68   39   63 1
    69   39   64 1
    70   40   65 1
@<TRIPOS>MOLECULE
CHEMBL502544__1
   65    69     0     0     0
SMALL
USER_CHARGES

@<TRIPOS>ATOM
      1 C1         -7.0280    0.0084    2.4623 C.ar      1 <0>        -0.0725
      2 C2         -7.9104    0.8786    3.0738 C.ar      1 <0>        -0.1519
      3 C3         -7.7013    2.2450    2.9942 C.ar      1 <0>         0.1045
      4 C4         -6.6082    2.7379    2.3019 C.ar      1 <0>        -0.1520
      5 C5         -5.7271    1.8657    1.6912 C.ar      1 <0>        -0.0726
      6 C6         -5.9369    0.5016    1.7714 C.ar      1 <0>        -0.0909
      7 C7         -4.9754   -0.4485    1.1051 C.3       1 <0>        -0.0943
      8 C8         -5.4304   -0.7158   -0.3065 C.2       1 <0>         0.5147
      9 O1         -6.4360   -0.1871   -0.7296 O.2       1 <0>        -0.4479
     10 N1         -4.7194   -1.5426   -1.0985 N.am      1 <0>        -0.6890
     11 C9         -5.1264   -1.7817   -2.3609 C.2       1 <0>         0.6937
     12 O2         -6.1345   -1.2516   -2.7851 O.2       1 <0>        -0.5045
     13 N2         -4.4154   -2.6085   -3.1530 N.am      1 <0>        -0.6773
     14 C10        -4.8816   -2.9217   -4.4365 C.ar      1 <0>         0.1928
     15 C11        -4.6762   -4.1917   -4.9591 C.ar      1 <0>        -0.1393
     16 C12        -5.1351   -4.5008   -6.2246 C.ar      1 <0>        -0.0701
     17 C13        -5.8019   -3.5434   -6.9743 C.ar      1 <0>         0.0318
     18 C14        -6.0082   -2.2723   -6.4529 C.ar      1 <0>         0.1201
     19 C15        -5.5539   -1.9641   -5.1838 C.ar      1 <0>        -0.1469
     20 F1         -6.6572   -1.3394   -7.1834 F         1 <0>        -0.1204
     21 O3         -6.2534   -3.8487   -8.2203 O.3       1 <0>        -0.2045
     22 C16        -5.4471   -3.5714   -9.2758 C.ar      1 <0>         0.2153
     23 C17        -4.2426   -2.8981   -9.1004 C.ar      1 <0>        -0.2774
     24 C18        -3.4495   -2.6352  -10.2022 C.ar      1 <0>         0.1778
     25 N3         -3.8070   -3.0067  -11.4144 N.ar      1 <0>        -0.5130
     26 C19        -4.9450   -3.6521  -11.6423 C.ar      1 <0>         0.3094
     27 C20        -5.7985   -3.9588  -10.5725 C.ar      1 <0>        -0.1380
     28 C21        -6.9491   -4.6706  -11.1586 C.2       1 <0>        -0.2335
     29 C22        -6.7088   -4.7441  -12.5037 C.2       1 <0>         0.1302
     30 N4         -5.5328   -4.1377  -12.7896 N.pl3     1 <0>        -0.5582
     31 H1         -5.1518   -4.0638  -13.6786 H         1 <0>         0.4289
     32 C23        -8.0783   -5.1773  -10.4671 C.2       1 <0>         0.4093
     33 O4         -8.1644   -5.0417   -9.2638 O.2       1 <0>        -0.4144
     34 C24        -9.1718   -5.8842  -11.2259 C.3       1 <0>         0.0045
     35 N5        -10.2206   -6.3104  -10.2898 N.3       1 <0>        -0.5096
     36 C25        -9.7361   -7.3946   -9.4090 C.3       1 <0>         0.0468
     37 C26       -10.9786   -8.2847   -9.1571 C.3       1 <0>        -0.1651
     38 C27       -11.6864   -8.2324  -10.5367 C.3       1 <0>         0.0820
     39 C28       -11.4118   -6.7908  -11.0139 C.3       1 <0>         0.0478
     40 O5        -13.0901   -8.4583  -10.3932 O.3       1 <0>        -0.5590
     41 F2         -8.5635    3.0968    3.5912 F         1 <0>        -0.1380
     42 H2         -7.1884   -1.0576    2.5281 H         1 <0>         0.1324
     43 H3         -8.7629    0.4931    3.6132 H         1 <0>         0.1378
     44 H4         -6.4443    3.8035    2.2389 H         1 <0>         0.1378
     45 H5         -4.8746    2.2499    1.1509 H         1 <0>         0.1324
     46 H6         -3.9797   -0.0052    1.0881 H         1 <0>         0.1144
     47 H7         -4.9465   -1.3855    1.6612 H         1 <0>         0.1143
     48 H8         -3.9148   -1.9656   -0.7600 H         1 <0>         0.4131
     49 H9         -3.5809   -2.9867   -2.8344 H         1 <0>         0.4145
     50 H10        -4.1571   -4.9379   -4.3760 H         1 <0>         0.1441
     51 H11        -4.9744   -5.4886   -6.6306 H         1 <0>         0.1479
     52 H12        -5.7181   -0.9777   -4.7759 H         1 <0>         0.1606
     53 H13        -3.9308   -2.5839   -8.1153 H         1 <0>         0.1417
     54 H14        -2.5144   -2.1124  -10.0656 H         1 <0>         0.1689
     55 H15        -7.3621   -5.2075  -13.2281 H         1 <0>         0.1929
     56 H16        -9.5981   -5.2060  -11.9650 H         1 <0>         0.1064
     57 H17        -8.7580   -6.7575  -11.7301 H         1 <0>         0.0666
     58 H18        -8.9538   -7.9672   -9.9072 H         1 <0>         0.0450
     59 H19        -9.3669   -6.9837   -8.4694 H         1 <0>         0.0949
     60 H20       -10.6845   -9.3041   -8.9076 H         1 <0>         0.0764
     61 H21       -11.6112   -7.8605   -8.3774 H         1 <0>         0.0872
     62 H22       -11.2467   -8.9560  -11.2231 H         1 <0>         0.0636
     63 H23       -12.2668   -6.1549  -10.7843 H         1 <0>         0.0930
     64 H24       -11.2205   -6.7855  -12.0870 H         1 <0>         0.0632
     65 H25       -13.3135   -9.3236  -10.0237 H         1 <0>         0.3815
@<TRIPOS>BOND
     1    1    6 ar
     2    1    2 ar
     3    1   42 1
     4    2    3 ar
     5    2   43 1
     6    3    4 ar
     7    3   41 1
     8    4    5 ar
     9    4   44 1
    10    5    6 ar
    11    5   45 1
    12    6    7 1
    13    7    8 1
    14    7   46 1
    15    7   47 1
    16    8    9 2
    17    8   10 am
    18   10   11 am
    19   10   48 1
    20   11   12 2
    21   11   13 am
    22   13   14 1
    23   13   49 1
    24   14   19 ar
    25   14   15 ar
    26   15   16 ar
    27   15   50 1
    28   16   17 ar
    29   16   51 1
    30   17   18 ar
    31   17   21 1
    32   18   19 ar
    33   18   20 1
    34   19   52 1
    35   21   22 1
    36   22   27 ar
    37   22   23 ar
    38   23   24 ar
    39   23   53 1
    40   24   25 ar
    41   24   54 1
    42   25   26 ar
    43   26   30 1
    44   26   27 ar
    45   27   28 1
    46   28   29 2
    47   28   32 1
    48   29   30 1
    49   29   55 1
    50   30   31 1
    51   32   33 2
    52   32   34 1
    53   34   35 1
    54   34   56 1
    55   34   57 1
    56   35   39 1
    57   35   36 1
    58   36   37 1
    59   36   58 1
    60   36   59 1
    61   37   38 1
    62   37   60 1
    63   37   61 1
    64   38   39 1
    65   38   40 1
    66   38   62 1
    67   39   63 1
    68   39   64 1
    69   40   65 1
@<TRIPOS>MOLECULE
CHEMBL502544__2
   66    70     0     0     0
SMALL
USER_CHARGES

@<TRIPOS>ATOM
      1 C1         -6.9968   -0.0189    2.4739 C.ar      1 <0>        -0.0727
      2 C2         -7.8749    0.8529    3.0893 C.ar      1 <0>        -0.1522
      3 C3         -7.6610    2.2187    3.0133 C.ar      1 <0>         0.1063
      4 C4         -6.5672    2.7095    2.3205 C.ar      1 <0>        -0.1516
      5 C5         -5.6904    1.8359    1.7059 C.ar      1 <0>        -0.0723
      6 C6         -5.9050    0.4723    1.7825 C.ar      1 <0>        -0.0932
      7 C7         -4.9481   -0.4793    1.1119 C.3       1 <0>        -0.0940
      8 C8         -5.4065   -0.7410   -0.2996 C.2       1 <0>         0.5158
      9 O1         -6.4109   -0.2074   -0.7195 O.2       1 <0>        -0.4478
     10 N1         -4.6999   -1.5681   -1.0952 N.am      1 <0>        -0.6885
     11 C9         -5.1099   -1.8021   -2.3576 C.2       1 <0>         0.6959
     12 O2         -6.1168   -1.2672   -2.7786 O.2       1 <0>        -0.5065
     13 N2         -4.4032   -2.6292   -3.1532 N.am      1 <0>        -0.6792
     14 C10        -4.8728   -2.9371   -4.4369 C.ar      1 <0>         0.2036
     15 C11        -4.6729   -4.2063   -4.9634 C.ar      1 <0>        -0.1398
     16 C12        -5.1351   -4.5102   -6.2290 C.ar      1 <0>        -0.0686
     17 C13        -5.7996   -3.5482   -6.9748 C.ar      1 <0>         0.0189
     18 C14        -6.0004   -2.2779   -6.4495 C.ar      1 <0>         0.1214
     19 C15        -5.5428   -1.9750   -5.1803 C.ar      1 <0>        -0.1470
     20 F1         -6.6473   -1.3405   -7.1762 F         1 <0>        -0.1216
     21 O3         -6.2544   -3.8484   -8.2209 O.3       1 <0>        -0.2118
     22 C16        -5.4489   -3.5710   -9.2770 C.ar      1 <0>         0.2091
     23 C17        -4.2417   -2.9026   -9.1018 C.ar      1 <0>        -0.2638
     24 C18        -3.4494   -2.6395  -10.2041 C.ar      1 <0>         0.1865
     25 N3         -3.8104   -3.0062  -11.4168 N.ar      1 <0>        -0.5054
     26 C19        -4.9511   -3.6468  -11.6446 C.ar      1 <0>         0.3112
     27 C20        -5.8039   -3.9534  -10.5742 C.ar      1 <0>        -0.1330
     28 C21        -6.9581   -4.6593  -11.1604 C.2       1 <0>        -0.2617
     29 C22        -6.7203   -4.7299  -12.5060 C.2       1 <0>         0.1587
     30 N4         -5.5426   -4.1270  -12.7923 N.pl3     1 <0>        -0.5466
     31 H1         -5.1629   -4.0520  -13.6817 H         1 <0>         0.4364
     32 C23        -8.0880   -5.1639  -10.4684 C.2       1 <0>         0.4114
     33 O4         -8.1715   -5.0314   -9.2645 O.2       1 <0>        -0.4278
     34 C24        -9.1853   -5.8647  -11.2272 C.3       1 <0>        -0.0513
     35 N5        -10.2341   -6.2897  -10.2906 N.4       1 <0>        -0.3856
     36 C25        -9.7458   -7.4001   -9.4328 C.3       1 <0>        -0.0034
     37 C26       -11.0286   -8.1011   -8.9365 C.3       1 <0>        -0.1832
     38 C27       -12.1054   -7.7564   -9.9858 C.3       1 <0>         0.0892
     39 C28       -11.3828   -6.8761  -11.0279 C.3       1 <0>        -0.0009
     40 O5        -12.5995   -8.9484  -10.6001 O.3       1 <0>        -0.5503
     41 F2         -8.5191    3.0719    3.6141 F         1 <0>        -0.1367
     42 H2         -7.1610   -1.0845    2.5369 H         1 <0>         0.1319
     43 H3         -8.7279    0.4689    3.6291 H         1 <0>         0.1382
     44 H4         -6.3996    3.7747    2.2602 H         1 <0>         0.1386
     45 H5         -4.8374    2.2185    1.1652 H         1 <0>         0.1324
     46 H6         -3.9509   -0.0397    1.0945 H         1 <0>         0.1155
     47 H7         -4.9217   -1.4181    1.6652 H         1 <0>         0.1151
     48 H8         -3.8963   -1.9950   -0.7593 H         1 <0>         0.4146
     49 H9         -3.5696   -3.0114   -2.8371 H         1 <0>         0.4169
     50 H10        -4.1555   -4.9561   -4.3833 H         1 <0>         0.1468
     51 H11        -4.9787   -5.4974   -6.6381 H         1 <0>         0.1470
     52 H12        -5.7028   -0.9892   -4.7693 H         1 <0>         0.1633
     53 H13        -3.9270   -2.5923   -8.1163 H         1 <0>         0.1472
     54 H14        -2.5122   -2.1204  -10.0677 H         1 <0>         0.1757
     55 H15        -7.3766   -5.1889  -13.2306 H         1 <0>         0.1966
     56 H16        -9.6104   -5.1828  -11.9637 H         1 <0>         0.1612
     57 H17        -8.7756   -6.7381  -11.7346 H         1 <0>         0.1601
     58 H18        -9.1363   -8.0908  -10.0155 H         1 <0>         0.1323
     59 H19        -9.1768   -7.0075   -8.5901 H         1 <0>         0.1446
     60 H20       -10.8768   -9.1795   -8.8899 H         1 <0>         0.1201
     61 H21       -11.3162   -7.7159   -7.9582 H         1 <0>         0.1067
     62 H22       -12.9216   -7.2020   -9.5226 H         1 <0>         0.0974
     63 H23       -12.0462   -6.0890  -11.3863 H         1 <0>         0.1446
     64 H24       -11.0294   -7.4848  -11.8602 H         1 <0>         0.1453
     65 H25       -13.0242   -9.5612   -9.9843 H         1 <0>         0.4047
     66 H26       -10.5381   -5.5117   -9.7246 H         1 <0>         0.4354
@<TRIPOS>BOND
     1    1    6 ar
     2    1    2 ar
     3    1   42 1
     4    2    3 ar
     5    2   43 1
     6    3    4 ar
     7    3   41 1
     8    4    5 ar
     9    4   44 1
    10    5    6 ar
    11    5   45 1
    12    6    7 1
    13    7    8 1
    14    7   46 1
    15    7   47 1
    16    8    9 2
    17    8   10 am
    18   10   11 am
    19   10   48 1
    20   11   12 2
    21   11   13 am
    22   13   14 1
    23   13   49 1
    24   14   19 ar
    25   14   15 ar
    26   15   16 ar
    27   15   50 1
    28   16   17 ar
    29   16   51 1
    30   17   18 ar
    31   17   21 1
    32   18   19 ar
    33   18   20 1
    34   19   52 1
    35   21   22 1
    36   22   27 ar
    37   22   23 ar
    38   23   24 ar
    39   23   53 1
    40   24   25 ar
    41   24   54 1
    42   25   26 ar
    43   26   30 1
    44   26   27 ar
    45   27   28 1
    46   28   29 2
    47   28   32 1
    48   29   30 1
    49   29   55 1
    50   30   31 1
    51   32   33 2
    52   32   34 1
    53   34   35 1
    54   34   56 1
    55   34   57 1
    56   35   39 1
    57   35   36 1
    58   35   66 1
    59   36   37 1
    60   36   58 1
    61   36   59 1
    62   37   38 1
    63   37   60 1
    64   37   61 1
    65   38   39 1
    66   38   40 1
    67   38   62 1
    68   39   63 1
    69   39   64 1
    70   40   65 1
@<TRIPOS>MOLECULE
CHEMBL502544__3
   65    69     0     0     0
SMALL
USER_CHARGES

@<TRIPOS>ATOM
      1 C1         -7.0280    0.0084    2.4623 C.ar      1 <0>        -0.0725
      2 C2         -7.9104    0.8786    3.0738 C.ar      1 <0>        -0.1519
      3 C3         -7.7013    2.2450    2.9942 C.ar      1 <0>         0.1045
      4 C4         -6.6082    2.7379    2.3019 C.ar      1 <0>        -0.1520
      5 C5         -5.7271    1.8657    1.6912 C.ar      1 <0>        -0.0726
      6 C6         -5.9369    0.5016    1.7714 C.ar      1 <0>        -0.0909
      7 C7         -4.9754   -0.4485    1.1051 C.3       1 <0>        -0.0943
      8 C8         -5.4304   -0.7158   -0.3065 C.2       1 <0>         0.5147
      9 O1         -6.4360   -0.1871   -0.7296 O.2       1 <0>        -0.4480
     10 N1         -4.7194   -1.5426   -1.0985 N.am      1 <0>        -0.6890
     11 C9         -5.1264   -1.7817   -2.3609 C.2       1 <0>         0.6938
     12 O2         -6.1345   -1.2516   -2.7851 O.2       1 <0>        -0.5047
     13 N2         -4.4154   -2.6085   -3.1530 N.am      1 <0>        -0.6773
     14 C10        -4.8816   -2.9217   -4.4365 C.ar      1 <0>         0.1927
     15 C11        -4.6762   -4.1917   -4.9591 C.ar      1 <0>        -0.1392
     16 C12        -5.1351   -4.5008   -6.2246 C.ar      1 <0>        -0.0701
     17 C13        -5.8019   -3.5434   -6.9743 C.ar      1 <0>         0.0320
     18 C14        -6.0082   -2.2723   -6.4529 C.ar      1 <0>         0.1199
     19 C15        -5.5539   -1.9641   -5.1838 C.ar      1 <0>        -0.1469
     20 F1         -6.6572   -1.3394   -7.1834 F         1 <0>        -0.1205
     21 O3         -6.2534   -3.8487   -8.2203 O.3       1 <0>        -0.2046
     22 C16        -5.4471   -3.5714   -9.2758 C.ar      1 <0>         0.2152
     23 C17        -4.2426   -2.8981   -9.1004 C.ar      1 <0>        -0.2774
     24 C18        -3.4495   -2.6352  -10.2022 C.ar      1 <0>         0.1777
     25 N3         -3.8070   -3.0067  -11.4144 N.ar      1 <0>        -0.5129
     26 C19        -4.9450   -3.6521  -11.6423 C.ar      1 <0>         0.3094
     27 C20        -5.7985   -3.9588  -10.5725 C.ar      1 <0>        -0.1378
     28 C21        -6.9491   -4.6706  -11.1586 C.2       1 <0>        -0.2338
     29 C22        -6.7088   -4.7441  -12.5037 C.2       1 <0>         0.1308
     30 N4         -5.5328   -4.1377  -12.7896 N.pl3     1 <0>        -0.5582
     31 H1         -5.1518   -4.0638  -13.6786 H         1 <0>         0.4290
     32 C23        -8.0783   -5.1773  -10.4671 C.2       1 <0>         0.4108
     33 O4         -8.1644   -5.0417   -9.2638 O.2       1 <0>        -0.4148
     34 C24        -9.1718   -5.8842  -11.2259 C.3       1 <0>         0.0000
     35 N5        -10.2206   -6.3104  -10.2898 N.3       1 <0>        -0.4927
     36 C25        -9.7790   -7.4847   -9.4941 C.3       1 <0>         0.0350
     37 C26       -11.0889   -8.1297   -8.9928 C.3       1 <0>        -0.1582
     38 C27       -12.1690   -7.6757   -9.9962 C.3       1 <0>         0.0985
     39 C28       -11.4208   -6.7944  -11.0194 C.3       1 <0>         0.0377
     40 O5        -12.7494   -8.8078  -10.6468 O.3       1 <0>        -0.5674
     41 F2         -8.5635    3.0968    3.5912 F         1 <0>        -0.1380
     42 H2         -7.1884   -1.0576    2.5281 H         1 <0>         0.1324
     43 H3         -8.7629    0.4931    3.6132 H         1 <0>         0.1378
     44 H4         -6.4443    3.8035    2.2389 H         1 <0>         0.1378
     45 H5         -4.8746    2.2499    1.1509 H         1 <0>         0.1324
     46 H6         -3.9797   -0.0052    1.0881 H         1 <0>         0.1144
     47 H7         -4.9465   -1.3855    1.6612 H         1 <0>         0.1144
     48 H8         -3.9148   -1.9656   -0.7600 H         1 <0>         0.4131
     49 H9         -3.5809   -2.9867   -2.8344 H         1 <0>         0.4145
     50 H10        -4.1571   -4.9379   -4.3760 H         1 <0>         0.1442
     51 H11        -4.9744   -5.4886   -6.6306 H         1 <0>         0.1479
     52 H12        -5.7181   -0.9777   -4.7759 H         1 <0>         0.1606
     53 H13        -3.9308   -2.5839   -8.1153 H         1 <0>         0.1417
     54 H14        -2.5144   -2.1124  -10.0656 H         1 <0>         0.1689
     55 H15        -7.3621   -5.2075  -13.2281 H         1 <0>         0.1931
     56 H16        -9.5981   -5.2060  -11.9650 H         1 <0>         0.1066
     57 H17        -8.7580   -6.7575  -11.7301 H         1 <0>         0.0694
     58 H18        -9.2272   -8.1838  -10.1224 H         1 <0>         0.0437
     59 H19        -9.1663   -7.1642   -8.6515 H         1 <0>         0.0929
     60 H20       -11.0015   -9.2162   -8.9965 H         1 <0>         0.0780
     61 H21       -11.3281   -7.7718   -7.9914 H         1 <0>         0.0789
     62 H22       -12.9383   -7.0949   -9.4873 H         1 <0>         0.0707
     63 H23       -12.0442   -5.9543  -11.3253 H         1 <0>         0.0911
     64 H24       -11.1259   -7.3855  -11.8864 H         1 <0>         0.0578
     65 H25       -13.1948   -9.4210  -10.0463 H         1 <0>         0.3819
@<TRIPOS>BOND
     1    1    6 ar
     2    1    2 ar
     3    1   42 1
     4    2    3 ar
     5    2   43 1
     6    3    4 ar
     7    3   41 1
     8    4    5 ar
     9    4   44 1
    10    5    6 ar
    11    5   45 1
    12    6    7 1
    13    7    8 1
    14    7   46 1
    15    7   47 1
    16    8    9 2
    17    8   10 am
    18   10   11 am
    19   10   48 1
    20   11   12 2
    21   11   13 am
    22   13   14 1
    23   13   49 1
    24   14   19 ar
    25   14   15 ar
    26   15   16 ar
    27   15   50 1
    28   16   17 ar
    29   16   51 1
    30   17   18 ar
    31   17   21 1
    32   18   19 ar
    33   18   20 1
    34   19   52 1
    35   21   22 1
    36   22   27 ar
    37   22   23 ar
    38   23   24 ar
    39   23   53 1
    40   24   25 ar
    41   24   54 1
    42   25   26 ar
    43   26   30 1
    44   26   27 ar
    45   27   28 1
    46   28   29 2
    47   28   32 1
    48   29   30 1
    49   29   55 1
    50   30   31 1
    51   32   33 2
    52   32   34 1
    53   34   35 1
    54   34   56 1
    55   34   57 1
    56   35   39 1
    57   35   36 1
    58   36   37 1
    59   36   58 1
    60   36   59 1
    61   37   38 1
    62   37   60 1
    63   37   61 1
    64   38   39 1
    65   38   40 1
    66   38   62 1
    67   39   63 1
    68   39   64 1
    69   40   65 1
@<TRIPOS>MOLECULE
CHEMBL252213
   56    60     0     0     0
SMALL
USER_CHARGES

@<TRIPOS>ATOM
      1 C1          2.3025   -3.7385   -2.1204 C.ar      1 <0>        -0.1154
      2 C2          1.9910   -2.4681   -2.5711 C.ar      1 <0>        -0.1206
      3 C3          2.3912   -1.3605   -1.8522 C.ar      1 <0>        -0.0993
      4 C4          3.1113   -1.5238   -0.6685 C.ar      1 <0>        -0.0241
      5 C5          3.4222   -2.8075   -0.2193 C.ar      1 <0>        -0.0886
      6 C6          3.0164   -3.9070   -0.9472 C.ar      1 <0>        -0.1186
      7 C7          3.5442   -0.3395    0.1076 C.2       1 <0>        -0.0298
      8 C8          4.2144    0.7933   -0.3900 C.2       1 <0>        -0.1667
      9 C9          4.4241    1.6413    0.6467 C.2       1 <0>         0.0687
     10 N1          3.9185    1.1001    1.7790 N.pl3     1 <0>        -0.2412
     11 C10         3.3622   -0.1258    1.4731 C.2       1 <0>        -0.0796
     12 C11         2.7664   -0.8742    2.5068 C.2       1 <0>         0.4679
     13 N2          2.7532   -0.3843    3.7344 N.2       1 <0>        -0.6045
     14 C12         3.2899    0.8007    4.0184 C.2       1 <0>         0.3285
     15 N3          3.8636    1.5409    3.1092 N.2       1 <0>        -0.3329
     16 O1          2.2130   -2.0815    2.2459 O.3       1 <0>        -0.2093
     17 C13         1.7443   -2.8092    3.2950 C.ar      1 <0>         0.0349
     18 C14         2.5537   -3.7630    3.8937 C.ar      1 <0>        -0.0591
     19 C15         2.0787   -4.5024    4.9591 C.ar      1 <0>        -0.1161
     20 C16         0.7901   -4.2915    5.4318 C.ar      1 <0>         0.2013
     21 C17        -0.0211   -3.3370    4.8332 C.ar      1 <0>        -0.1706
     22 C18         0.4569   -2.5930    3.7702 C.ar      1 <0>         0.1382
     23 F1         -0.3297   -1.6600    3.1905 F         1 <0>        -0.1231
     24 N4          0.3086   -5.0422    6.5122 N.am      1 <0>        -0.6779
     25 C19         1.1417   -5.3978    7.5102 C.2       1 <0>         0.6961
     26 O2          2.3272   -5.1410    7.4328 O.2       1 <0>        -0.5046
     27 N5          0.6602   -6.0381    8.5940 N.am      1 <0>        -0.6891
     28 C20         1.4933   -6.3937    9.5920 C.2       1 <0>         0.5155
     29 O3          2.6758   -6.1376    9.5148 O.2       1 <0>        -0.4485
     30 C21         0.9549   -7.1097   10.8039 C.3       1 <0>        -0.0947
     31 C22         2.0826   -7.3915   11.7630 C.ar      1 <0>        -0.0909
     32 C23         2.7962   -8.5712   11.6626 C.ar      1 <0>        -0.0724
     33 C24         3.8309   -8.8305   12.5413 C.ar      1 <0>        -0.1521
     34 C25         4.1526   -7.9082   13.5226 C.ar      1 <0>         0.1046
     35 C26         3.4372   -6.7269   13.6222 C.ar      1 <0>        -0.1521
     36 C27         2.4064   -6.4675   12.7390 C.ar      1 <0>        -0.0725
     37 F2          5.1635   -8.1608   14.3825 F         1 <0>        -0.1379
     38 H1          1.9832   -4.6025   -2.6843 H         1 <0>         0.1219
     39 H2          1.4338   -2.3431   -3.4878 H         1 <0>         0.1242
     40 H3          2.1478   -0.3693   -2.2052 H         1 <0>         0.1246
     41 H4          3.9797   -2.9403    0.6961 H         1 <0>         0.1170
     42 H5          3.2561   -4.9013   -0.6004 H         1 <0>         0.1230
     43 H6          4.5093    0.9580   -1.4158 H         1 <0>         0.1663
     44 H7          4.9180    2.5993    0.5793 H         1 <0>         0.1859
     45 H8          3.2547    1.1588    5.0367 H         1 <0>         0.2242
     46 H9          3.5559   -3.9278    3.5265 H         1 <0>         0.1456
     47 H10         2.7096   -5.2452    5.4246 H         1 <0>         0.1572
     48 H11        -1.0233   -3.1727    5.2004 H         1 <0>         0.1495
     49 H12        -0.6243   -5.3060    6.5420 H         1 <0>         0.4143
     50 H13        -0.2859   -6.2430    8.6557 H         1 <0>         0.4134
     51 H14         0.2089   -6.4840   11.2939 H         1 <0>         0.1144
     52 H15         0.4959   -8.0493   10.4966 H         1 <0>         0.1146
     53 H16         2.5449   -9.2906   10.8973 H         1 <0>         0.1324
     54 H17         4.3880   -9.7524   12.4629 H         1 <0>         0.1378
     55 H18         3.6870   -6.0069   14.3874 H         1 <0>         0.1378
     56 H19         1.8511   -5.5442   12.8137 H         1 <0>         0.1324
@<TRIPOS>BOND
     1    1    6 ar
     2    1    2 ar
     3    1   38 1
     4    2    3 ar
     5    2   39 1
     6    3    4 ar
     7    3   40 1
     8    4    5 ar
     9    4    7 1
    10    5    6 ar
    11    5   41 1
    12    6   42 1
    13    7   11 2
    14    7    8 1
    15    8    9 2
    16    8   43 1
    17    9   10 1
    18    9   44 1
    19   10   15 1
    20   10   11 1
    21   11   12 1
    22   12   13 2
    23   12   16 1
    24   13   14 1
    25   14   15 2
    26   14   45 1
    27   16   17 1
    28   17   22 ar
    29   17   18 ar
    30   18   19 ar
    31   18   46 1
    32   19   20 ar
    33   19   47 1
    34   20   21 ar
    35   20   24 1
    36   21   22 ar
    37   21   48 1
    38   22   23 1
    39   24   25 am
    40   24   49 1
    41   25   26 2
    42   25   27 am
    43   27   28 am
    44   27   50 1
    45   28   29 2
    46   28   30 1
    47   30   31 1
    48   30   51 1
    49   30   52 1
    50   31   36 ar
    51   31   32 ar
    52   32   33 ar
    53   32   53 1
    54   33   34 ar
    55   33   54 1
    56   34   35 ar
    57   34   37 1
    58   35   36 ar
    59   35   55 1
    60   36   56 1
@<TRIPOS>MOLECULE
CHEMBL477560
   35    37     0     0     0
SMALL
USER_CHARGES

@<TRIPOS>ATOM
      1 C1         -0.0167    1.3779    0.0096 C.ar      1 <0>        -0.1073
      2 C2          1.1696    2.0886    0.0021 C.ar      1 <0>        -0.1259
      3 C3          2.3802    1.4154   -0.0130 C.ar      1 <0>         0.0790
      4 C4          2.3990    0.0236   -0.0206 C.ar      1 <0>         0.0844
      5 C5          1.2071   -0.6822   -0.0130 C.ar      1 <0>        -0.1234
      6 C6          0.0021   -0.0041    0.0020 C.ar      1 <0>        -0.0729
      7 C7         -1.2936   -0.7736    0.0102 C.3       1 <0>        -0.0364
      8 C8         -1.7390   -1.0225   -1.4078 C.2       1 <0>        -0.1573
      9 C9         -1.4341   -2.1703   -2.0060 C.2       1 <0>        -0.0892
     10 C10        -1.8564   -2.3638   -3.4091 C.ar      1 <0>        -0.1248
     11 C11        -1.8317   -3.6209   -4.0061 C.ar      1 <0>        -0.0628
     12 C12        -2.2468   -3.7648   -5.3150 C.ar      1 <0>        -0.1572
     13 C13        -2.6882   -2.6628   -6.0349 C.ar      1 <0>         0.1172
     14 C14        -2.7110   -1.4016   -5.4470 C.ar      1 <0>         0.0560
     15 C15        -2.2901   -1.2477   -4.1366 C.ar      1 <0>         0.1186
     16 O1         -2.2649   -0.0255   -3.5433 O.3       1 <0>        -0.2965
     17 C16        -2.5329    0.0270   -2.1397 C.3       1 <0>         0.1012
     18 O2         -3.1447   -0.3243   -6.1567 O.3       1 <0>        -0.4732
     19 O3         -3.1000   -2.8165   -7.3215 O.3       1 <0>        -0.4829
     20 O4          3.5850   -0.6417   -0.0359 O.3       1 <0>        -0.4871
     21 O5          3.5476    2.1129   -0.0209 O.3       1 <0>        -0.4875
     22 H1         -0.9598    1.9038    0.0259 H         1 <0>         0.1304
     23 H2          1.1522    3.1684    0.0077 H         1 <0>         0.1354
     24 H3          1.2190   -1.7621   -0.0189 H         1 <0>         0.1323
     25 H4         -1.1467   -1.7271    0.5175 H         1 <0>         0.0882
     26 H5         -2.0555   -0.1967    0.5344 H         1 <0>         0.0888
     27 H6         -0.8913   -2.9416   -1.4799 H         1 <0>         0.1353
     28 H7         -1.4890   -4.4798   -3.4481 H         1 <0>         0.1386
     29 H8         -2.2276   -4.7389   -5.7810 H         1 <0>         0.1397
     30 H9         -3.5958   -0.1422   -1.9672 H         1 <0>         0.0727
     31 H10        -2.2610    1.0119   -1.7602 H         1 <0>         0.1152
     32 H11        -4.0944   -0.1593   -6.0801 H         1 <0>         0.3844
     33 H12        -4.0436   -3.0074   -7.4123 H         1 <0>         0.3915
     34 H13         3.9367   -0.8389    0.8430 H         1 <0>         0.3879
     35 H14         3.8938    2.3101    0.8602 H         1 <0>         0.3878
@<TRIPOS>BOND
     1    1    6 ar
     2    1    2 ar
     3    1   22 1
     4    2    3 ar
     5    2   23 1
     6    3    4 ar
     7    3   21 1
     8    4    5 ar
     9    4   20 1
    10    5    6 ar
    11    5   24 1
    12    6    7 1
    13    7    8 1
    14    7   25 1
    15    7   26 1
    16    8   17 1
    17    8    9 2
    18    9   10 1
    19    9   27 1
    20   10   15 ar
    21   10   11 ar
    22   11   12 ar
    23   11   28 1
    24   12   13 ar
    25   12   29 1
    26   13   14 ar
    27   13   19 1
    28   14   15 ar
    29   14   18 1
    30   15   16 1
    31   16   17 1
    32   17   30 1
    33   17   31 1
    34   18   32 1
    35   19   33 1
    36   20   34 1
    37   21   35 1
@<TRIPOS>MOLECULE
CHEMBL477768
   37    39     0     0     0
SMALL
USER_CHARGES

@<TRIPOS>ATOM
      1 C1         -0.0167    1.3779    0.0096 C.ar      1 <0>        -0.1073
      2 C2          1.1696    2.0886    0.0021 C.ar      1 <0>        -0.1267
      3 C3          2.3802    1.4154   -0.0130 C.ar      1 <0>         0.0832
      4 C4          2.3990    0.0236   -0.0206 C.ar      1 <0>         0.0815
      5 C5          1.2071   -0.6822   -0.0130 C.ar      1 <0>        -0.1020
      6 C6          0.0021   -0.0041    0.0020 C.ar      1 <0>        -0.0819
      7 C7         -1.2936   -0.7736    0.0102 C.3       1 <0>        -0.0580
      8 C8         -1.7458   -1.0263   -1.4294 C.3       1 <0>         0.0693
      9 C9         -3.1501   -1.6480   -1.4351 C.3       1 <0>         0.0417
     10 O1         -4.0684   -0.7468   -0.8168 O.3       1 <0>        -0.2879
     11 C10        -4.1221    0.5321   -1.2590 C.ar      1 <0>         0.1636
     12 C11        -3.0343    1.1055   -1.9401 C.ar      1 <0>        -0.2472
     13 C12        -3.0973    2.4297   -2.3833 C.ar      1 <0>        -0.0163
     14 C13        -4.2240    3.1696   -2.1582 C.ar      1 <0>        -0.1724
     15 C14        -5.3090    2.6112   -1.4900 C.ar      1 <0>         0.1548
     16 C15        -5.2611    1.2960   -1.0402 C.ar      1 <0>         0.0422
     17 O2         -6.3279    0.7587   -0.3877 O.3       1 <0>        -0.4749
     18 O3         -6.4234    3.3563   -1.2748 O.3       1 <0>        -0.4860
     19 C16        -1.8346    0.2894   -2.1820 C.2       1 <0>         0.3744
     20 O4         -0.9613    0.6489   -2.9439 O.2       1 <0>        -0.4095
     21 O5         -0.8226   -1.8995   -2.0831 O.3       1 <0>        -0.5195
     22 O6          3.5850   -0.6417   -0.0359 O.3       1 <0>        -0.4863
     23 O7          3.5476    2.1129   -0.0209 O.3       1 <0>        -0.4875
     24 H1         -0.9598    1.9038    0.0259 H         1 <0>         0.1239
     25 H2          1.1522    3.1684    0.0077 H         1 <0>         0.1337
     26 H3          1.2190   -1.7621   -0.0189 H         1 <0>         0.1362
     27 H4         -1.1467   -1.7271    0.5175 H         1 <0>         0.1013
     28 H5         -2.0555   -0.1967    0.5344 H         1 <0>         0.0982
     29 H6         -3.4607   -1.8355   -2.4629 H         1 <0>         0.0779
     30 H7         -3.1342   -2.5873   -0.8823 H         1 <0>         0.1347
     31 H8         -2.2575    2.8670   -2.9028 H         1 <0>         0.1453
     32 H9         -4.2722    4.1929   -2.5003 H         1 <0>         0.1456
     33 H10        -6.3035    0.8788    0.5715 H         1 <0>         0.3929
     34 H11        -7.0791    3.2968   -1.9830 H         1 <0>         0.4038
     35 H12        -1.0528   -2.0996   -3.0007 H         1 <0>         0.3854
     36 H13         3.9367   -0.8389    0.8430 H         1 <0>         0.3868
     37 H14         3.8938    2.3101    0.8602 H         1 <0>         0.3872
@<TRIPOS>BOND
     1    1    6 ar
     2    1    2 ar
     3    1   24 1
     4    2    3 ar
     5    2   25 1
     6    3    4 ar
     7    3   23 1
     8    4    5 ar
     9    4   22 1
    10    5    6 ar
    11    5   26 1
    12    6    7 1
    13    7    8 1
    14    7   27 1
    15    7   28 1
    16    8   19 1
    17    8    9 1
    18    8   21 1
    19    9   10 1
    20    9   29 1
    21    9   30 1
    22   10   11 1
    23   11   16 ar
    24   11   12 ar
    25   12   13 ar
    26   12   19 1
    27   13   14 ar
    28   13   31 1
    29   14   15 ar
    30   14   32 1
    31   15   16 ar
    32   15   18 1
    33   16   17 1
    34   17   33 1
    35   18   34 1
    36   19   20 2
    37   21   35 1
    38   22   36 1
    39   23   37 1
@<TRIPOS>MOLECULE
CHEMBL550857
   49    52     0     0     0
SMALL
USER_CHARGES

@<TRIPOS>ATOM
      1 C1         -5.7725   -1.4385    2.7684 C.3       1 <0>         0.0239
      2 N1         -4.8152   -2.4520    2.3052 N.3       1 <0>        -0.5414
      3 C2         -3.8604   -2.7982    3.3666 C.3       1 <0>         0.0396
      4 C3         -2.9993   -3.9802    2.9087 C.3       1 <0>         0.0951
      5 N2         -2.3924   -3.6417    1.6124 N.am      1 <0>        -0.6076
      6 C4         -3.2715   -3.1543    0.5387 C.3       1 <0>         0.1166
      7 C5         -4.1219   -2.0048    1.0898 C.3       1 <0>         0.0389
      8 C6         -1.0661   -3.7749    1.4137 C.2       1 <0>         0.5723
      9 O1         -0.5919   -3.5640    0.3141 O.2       1 <0>        -0.5175
     10 C7         -0.1893   -4.1769    2.5306 C.ar      1 <0>        -0.1666
     11 C8         -0.5565   -5.2311    3.3737 C.ar      1 <0>        -0.0459
     12 C9          0.3015   -5.5712    4.4089 C.ar      1 <0>         0.0207
     13 C10         1.5017   -4.8505    4.5743 C.ar      1 <0>         0.1532
     14 C11         2.1574   -5.4186    5.6965 C.2       1 <0>        -0.1657
     15 C12         1.3877   -6.4165    6.1651 C.2       1 <0>         0.1168
     16 N3          0.2608   -6.5266    5.4019 N.pl3     1 <0>        -0.8178
     17 S1         -0.9554   -7.6267    5.6318 S.o2      1 <0>         2.6787
     18 O2         -1.2099   -8.2211    4.3664 O.2       1 <0>        -0.9165
     19 O3         -0.6001   -8.3919    6.7753 O.2       1 <0>        -0.8864
     20 C13        -2.4035   -6.7200    6.0627 C.ar      1 <0>        -0.6387
     21 C14        -3.5151   -6.7617    5.2417 C.ar      1 <0>        -0.0164
     22 C15        -4.6509   -6.0505    5.5797 C.ar      1 <0>        -0.0835
     23 C16        -4.6757   -5.2977    6.7390 C.ar      1 <0>        -0.0554
     24 C17        -3.5648   -5.2567    7.5603 C.ar      1 <0>        -0.0621
     25 C18        -2.4301   -5.9716    7.2244 C.ar      1 <0>         0.0417
     26 N4         -1.2421   -5.9318    8.1065 N.pl3     1 <0>         0.0150
     27 O4         -1.2285   -5.2010    9.0695 O.2       1 <0>        -0.1106
     28 O5         -0.2854   -6.6300    7.8639 O.3       1 <0>        -0.1522
     29 N5          1.8106   -3.8524    3.7458 N.ar      1 <0>        -0.4466
     30 C19         1.0222   -3.5108    2.7545 C.ar      1 <0>         0.1649
     31 H1         -6.5136   -1.2564    1.9902 H         1 <0>         0.0739
     32 H2         -6.2717   -1.7951    3.6693 H         1 <0>         0.0699
     33 H3         -5.2423   -0.5121    2.9892 H         1 <0>         0.0280
     34 H4         -3.2203   -1.9407    3.5739 H         1 <0>         0.0426
     35 H5         -4.4047   -3.0732    4.2700 H         1 <0>         0.0860
     36 H6         -2.2151   -4.1678    3.6423 H         1 <0>         0.0899
     37 H7         -3.6231   -4.8674    2.8004 H         1 <0>         0.0817
     38 H8         -2.6673   -2.7958   -0.2948 H         1 <0>         0.1020
     39 H9         -3.9214   -3.9622    0.2026 H         1 <0>         0.0811
     40 H10        -4.8558   -1.7044    0.3421 H         1 <0>         0.0935
     41 H11        -3.4782   -1.1583    1.3289 H         1 <0>         0.0422
     42 H12        -1.4829   -5.7652    3.2229 H         1 <0>         0.1426
     43 H13         3.1078   -5.1052    6.1027 H         1 <0>         0.1715
     44 H14         1.6251   -7.0376    7.0162 H         1 <0>         0.2125
     45 H15        -3.4957   -7.3498    4.3360 H         1 <0>         0.1694
     46 H16        -5.5190   -6.0825    4.9379 H         1 <0>         0.1622
     47 H17        -5.5631   -4.7414    7.0028 H         1 <0>         0.1626
     48 H18        -3.5841   -4.6683    8.4657 H         1 <0>         0.1678
     49 H19         1.3101   -2.6993    2.1027 H         1 <0>         0.1741
@<TRIPOS>BOND
     1    1    2 1
     2    1   31 1
     3    1   32 1
     4    1   33 1
     5    2    7 1
     6    2    3 1
     7    3    4 1
     8    3   34 1
     9    3   35 1
    10    4    5 1
    11    4   36 1
    12    4   37 1
    13    5    6 1
    14    5    8 am
    15    6    7 1
    16    6   38 1
    17    6   39 1
    18    7   40 1
    19    7   41 1
    20    8    9 2
    21    8   10 1
    22   10   30 ar
    23   10   11 ar
    24   11   12 ar
    25   11   42 1
    26   12   16 1
    27   12   13 ar
    28   13   14 1
    29   13   29 ar
    30   14   15 2
    31   14   43 1
    32   15   16 1
    33   15   44 1
    34   16   17 1
    35   17   18 2
    36   17   19 2
    37   17   20 1
    38   20   25 ar
    39   20   21 ar
    40   21   22 ar
    41   21   45 1
    42   22   23 ar
    43   22   46 1
    44   23   24 ar
    45   23   47 1
    46   24   25 ar
    47   24   48 1
    48   25   26 1
    49   26   27 2
    50   26   28 1
    51   29   30 ar
    52   30   49 1
@<TRIPOS>MOLECULE
CHEMBL550857__1
   50    53     0     0     0
SMALL
USER_CHARGES

@<TRIPOS>ATOM
      1 C1         -2.4653    0.6120    0.7715 C.3       1 <0>        -0.0471
      2 N1         -1.7686   -0.6505    0.4912 N.4       1 <0>        -0.3860
      3 C2         -2.7470   -1.6683    0.0878 C.3       1 <0>        -0.0204
      4 C3         -2.0118   -2.9510   -0.3147 C.3       1 <0>         0.0891
      5 N2         -1.1377   -3.3559    0.7971 N.am      1 <0>        -0.6306
      6 C4         -0.2366   -2.3461    1.3738 C.3       1 <0>         0.0685
      7 C5         -1.0557   -1.0921    1.6966 C.3       1 <0>        -0.0213
      8 C6         -1.1620   -4.6162    1.2741 C.2       1 <0>         0.5841
      9 O1         -1.9866   -5.4075    0.8591 O.2       1 <0>        -0.4973
     10 C7         -0.1879   -5.0357    2.3003 C.ar      1 <0>        -0.1965
     11 C8         -0.5542   -5.9552    3.2890 C.ar      1 <0>        -0.0056
     12 C9          0.3971   -6.3181    4.2307 C.ar      1 <0>         0.0223
     13 C10         1.6870   -5.7540    4.1600 C.ar      1 <0>         0.1636
     14 C11         2.4246   -6.3074    5.2379 C.2       1 <0>        -0.1734
     15 C12         1.6156   -7.1490    5.9050 C.2       1 <0>         0.1384
     16 N3          0.3851   -7.1711    5.3136 N.pl3     1 <0>        -0.8138
     17 S1         -0.9093   -8.0740    5.8152 S.o2      1 <0>         2.6779
     18 O2         -1.4147   -8.7345    4.6629 O.2       1 <0>        -0.9112
     19 O3         -0.4875   -8.7797    6.9742 O.2       1 <0>        -0.8844
     20 C13        -2.1589   -6.9474    6.3385 C.ar      1 <0>        -0.6400
     21 C14        -3.3590   -6.8800    5.6554 C.ar      1 <0>        -0.0134
     22 C15        -4.3391   -5.9962    6.0659 C.ar      1 <0>        -0.0860
     23 C16        -4.1197   -5.1799    7.1599 C.ar      1 <0>        -0.0552
     24 C17        -2.9203   -5.2479    7.8434 C.ar      1 <0>        -0.0629
     25 C18        -1.9415   -6.1350    7.4353 C.ar      1 <0>         0.0407
     26 N4         -0.6589   -6.2114    8.1704 N.pl3     1 <0>         0.0173
     27 O4         -0.4899   -5.5414    9.1624 O.2       1 <0>        -0.1018
     28 O5          0.2196   -6.9439    7.7787 O.3       1 <0>        -0.1614
     29 N5          1.9914   -4.8808    3.1993 N.ar      1 <0>        -0.4437
     30 C19         1.1149   -4.5221    2.2915 C.ar      1 <0>         0.1300
     31 H1         -1.7392    1.3707    1.0634 H         1 <0>         0.1269
     32 H2         -2.9950    0.9410   -0.1226 H         1 <0>         0.1270
     33 H3         -3.1788    0.4612    1.5816 H         1 <0>         0.1214
     34 H4         -3.4165   -1.8796    0.9217 H         1 <0>         0.1330
     35 H5         -3.3261   -1.3003   -0.7591 H         1 <0>         0.1467
     36 H6         -2.7359   -3.7400   -0.5174 H         1 <0>         0.1390
     37 H7         -1.4102   -2.7645   -1.2043 H         1 <0>         0.1004
     38 H8          0.2128   -2.7353    2.2874 H         1 <0>         0.1385
     39 H9          0.5442   -2.0986    0.6546 H         1 <0>         0.1062
     40 H10        -0.3885   -0.2994    2.0351 H         1 <0>         0.1479
     41 H11        -1.7763   -1.3207    2.4818 H         1 <0>         0.1328
     42 H12        -1.5506   -6.3708    3.3184 H         1 <0>         0.1472
     43 H13         3.4547   -6.0912    5.4798 H         1 <0>         0.1755
     44 H14         1.8968   -7.7215    6.7765 H         1 <0>         0.2163
     45 H15        -3.5304   -7.5177    4.8008 H         1 <0>         0.1703
     46 H16        -5.2764   -5.9431    5.5318 H         1 <0>         0.1608
     47 H17        -4.8853   -4.4888    7.4803 H         1 <0>         0.1634
     48 H18        -2.7487   -4.6099    8.6978 H         1 <0>         0.1697
     49 H19         1.4016   -3.8152    1.5270 H         1 <0>         0.1699
     50 H20        -1.1063   -0.5089   -0.2568 H         1 <0>         0.4272
@<TRIPOS>BOND
     1    1    2 1
     2    1   31 1
     3    1   32 1
     4    1   33 1
     5    2    7 1
     6    2    3 1
     7    2   50 1
     8    3    4 1
     9    3   34 1
    10    3   35 1
    11    4    5 1
    12    4   36 1
    13    4   37 1
    14    5    6 1
    15    5    8 am
    16    6    7 1
    17    6   38 1
    18    6   39 1
    19    7   40 1
    20    7   41 1
    21    8    9 2
    22    8   10 1
    23   10   30 ar
    24   10   11 ar
    25   11   12 ar
    26   11   42 1
    27   12   16 1
    28   12   13 ar
    29   13   14 1
    30   13   29 ar
    31   14   15 2
    32   14   43 1
    33   15   16 1
    34   15   44 1
    35   16   17 1
    36   17   18 2
    37   17   19 2
    38   17   20 1
    39   20   25 ar
    40   20   21 ar
    41   21   22 ar
    42   21   45 1
    43   22   23 ar
    44   22   46 1
    45   23   24 ar
    46   23   47 1
    47   24   25 ar
    48   24   48 1
    49   25   26 1
    50   26   27 2
    51   26   28 1
    52   29   30 ar
    53   30   49 1
@<TRIPOS>MOLECULE
CHEMBL524364
   56    60     0     0     0
SMALL
USER_CHARGES

@<TRIPOS>ATOM
      1 C1          4.3028   -0.4001   -2.6297 C.ar      1 <0>        -0.1716
      2 C2          3.5845    0.5421   -1.9136 C.ar      1 <0>        -0.0683
      3 C3          4.1447    1.0493   -0.7375 C.ar      1 <0>        -0.0586
      4 C4          5.3976    0.5890   -0.3346 C.ar      1 <0>         0.1287
      5 N1          6.0434   -0.3090   -1.0496 N.ar      1 <0>        -0.4818
      6 C5          5.5399   -0.8055   -2.1633 C.ar      1 <0>         0.0939
      7 C6          3.4189    2.0604    0.0677 C.2       1 <0>        -0.1120
      8 C7          2.8543    3.2054   -0.3871 C.2       1 <0>         0.0762
      9 N2          2.2759    3.8780    0.6528 N.pl3     1 <0>        -0.5711
     10 H1          1.8093    4.7248    0.5742 H         1 <0>         0.4266
     11 C8          2.4496    3.1824    1.8260 C.ar      1 <0>         0.3198
     12 C9          3.1649    2.0144    1.5152 C.ar      1 <0>        -0.1610
     13 C10         3.4802    1.1073    2.5341 C.ar      1 <0>         0.2103
     14 C11         3.0619    1.4068    3.8254 C.ar      1 <0>        -0.2786
     15 C12         2.3580    2.5754    4.0547 C.ar      1 <0>         0.1799
     16 N3          2.0802    3.4167    3.0802 N.ar      1 <0>        -0.5145
     17 O1          4.1724   -0.0292    2.2691 O.3       1 <0>        -0.2316
     18 C13         4.5362   -0.8144    3.3182 C.ar      1 <0>         0.0310
     19 C14         5.7807   -0.6507    3.9079 C.ar      1 <0>        -0.0672
     20 C15         6.1511   -1.4477    4.9734 C.ar      1 <0>        -0.1141
     21 C16         5.2777   -2.4138    5.4550 C.ar      1 <0>         0.1962
     22 C17         4.0317   -2.5787    4.8655 C.ar      1 <0>        -0.1704
     23 C18         3.6590   -1.7768    3.8025 C.ar      1 <0>         0.1189
     24 F1          2.4444   -1.9324    3.2318 F         1 <0>        -0.1220
     25 N4          5.6541   -3.2223    6.5355 N.am      1 <0>        -0.6779
     26 C19         6.4133   -2.7131    7.5259 C.2       1 <0>         0.6960
     27 O2          6.8308   -1.5743    7.4474 O.2       1 <0>        -0.5050
     28 N5          6.7095   -3.4667    8.6033 N.am      1 <0>        -0.6892
     29 C20         7.4687   -2.9575    9.5937 C.2       1 <0>         0.5155
     30 O3          7.8852   -1.8216    9.5153 O.2       1 <0>        -0.4482
     31 C21         7.8000   -3.8000   10.7984 C.3       1 <0>        -0.0948
     32 C22         8.6542   -3.0024   11.7498 C.ar      1 <0>        -0.0910
     33 C23        10.0313   -3.0317   11.6318 C.ar      1 <0>        -0.0723
     34 C24        10.8157   -2.3003   12.5034 C.ar      1 <0>        -0.1520
     35 C25        10.2218   -1.5380   13.4950 C.ar      1 <0>         0.1046
     36 C26         8.8425   -1.5094   13.6122 C.ar      1 <0>        -0.1520
     37 C27         8.0600   -2.2375   12.7361 C.ar      1 <0>        -0.0725
     38 F2         10.9877   -0.8229   14.3479 F         1 <0>        -0.1379
     39 H2          3.8994   -0.8172   -3.5405 H         1 <0>         0.1354
     40 H3          2.6161    0.8769   -2.2550 H         1 <0>         0.1335
     41 H4          5.8427    0.9724    0.5717 H         1 <0>         0.1503
     42 H5          6.1028   -1.5404   -2.7197 H         1 <0>         0.1543
     43 H6          2.8608    3.5363   -1.4152 H         1 <0>         0.1845
     44 H7          3.2837    0.7342    4.6408 H         1 <0>         0.1401
     45 H8          2.0337    2.8066    5.0586 H         1 <0>         0.1675
     46 H9          6.4607    0.1003    3.5337 H         1 <0>         0.1490
     47 H10         7.1205   -1.3197    5.4318 H         1 <0>         0.1570
     48 H11         3.3522   -3.3302    5.2395 H         1 <0>         0.1494
     49 H12         5.3683   -4.1486    6.5708 H         1 <0>         0.4142
     50 H13         6.3764   -4.3755    8.6660 H         1 <0>         0.4134
     51 H14         6.8782   -4.0964   11.2990 H         1 <0>         0.1144
     52 H15         8.3434   -4.6900   10.4810 H         1 <0>         0.1146
     53 H16        10.4943   -3.6266   10.8585 H         1 <0>         0.1325
     54 H17        11.8915   -2.3236   12.4113 H         1 <0>         0.1378
     55 H18         8.3782   -0.9154   14.3854 H         1 <0>         0.1378
     56 H19         6.9839   -2.2119   12.8245 H         1 <0>         0.1323
@<TRIPOS>BOND
     1    1    6 ar
     2    1    2 ar
     3    1   39 1
     4    2    3 ar
     5    2   40 1
     6    3    4 ar
     7    3    7 1
     8    4    5 ar
     9    4   41 1
    10    5    6 ar
    11    6   42 1
    12    7   12 1
    13    7    8 2
    14    8    9 1
    15    8   43 1
    16    9   10 1
    17    9   11 1
    18   11   16 ar
    19   11   12 ar
    20   12   13 ar
    21   13   14 ar
    22   13   17 1
    23   14   15 ar
    24   14   44 1
    25   15   16 ar
    26   15   45 1
    27   17   18 1
    28   18   23 ar
    29   18   19 ar
    30   19   20 ar
    31   19   46 1
    32   20   21 ar
    33   20   47 1
    34   21   22 ar
    35   21   25 1
    36   22   23 ar
    37   22   48 1
    38   23   24 1
    39   25   26 am
    40   25   49 1
    41   26   27 2
    42   26   28 am
    43   28   29 am
    44   28   50 1
    45   29   30 2
    46   29   31 1
    47   31   32 1
    48   31   51 1
    49   31   52 1
    50   32   37 ar
    51   32   33 ar
    52   33   34 ar
    53   33   53 1
    54   34   35 ar
    55   34   54 1
    56   35   36 ar
    57   35   38 1
    58   36   37 ar
    59   36   55 1
    60   37   56 1
@<TRIPOS>MOLECULE
CHEMBL402036
   56    59     0     0     0
SMALL
USER_CHARGES

@<TRIPOS>ATOM
      1 C1         -0.9447    1.4384    0.1516 C.3       1 <0>         0.0900
      2 N1         -0.6103    0.0170    0.2699 N.am      1 <0>        -0.6122
      3 C2         -0.9552   -0.7176    1.4896 C.3       1 <0>         0.0598
      4 C3          0.0146   -0.6148   -0.7434 C.2       1 <0>         0.5999
      5 O1          0.3846    0.0142   -1.7163 O.2       1 <0>        -0.5104
      6 C4          0.2492   -2.0660   -0.6725 C.2       1 <0>        -0.1721
      7 C5          1.0046   -2.8441   -1.4937 C.2       1 <0>        -0.0568
      8 C6          1.1039   -4.2263   -1.2554 C.ar      1 <0>         0.1390
      9 C7          0.3805   -4.7006   -0.1390 C.ar      1 <0>        -0.2083
     10 S1         -0.3806   -3.2383    0.5166 S.3       1 <0>         0.1338
     11 C8          0.3840   -6.0399    0.2191 C.ar      1 <0>         0.2067
     12 C9          1.1289   -6.9200   -0.5594 C.ar      1 <0>        -0.2228
     13 C10         1.8246   -6.4124   -1.6469 C.ar      1 <0>         0.1596
     14 N2          1.8038   -5.1441   -1.9624 N.ar      1 <0>        -0.4668
     15 O2         -0.3167   -6.4785    1.2956 O.3       1 <0>        -0.2368
     16 C11        -0.3566   -7.8178    1.5290 C.ar      1 <0>         0.0475
     17 C12        -1.4752   -8.5520    1.1645 C.ar      1 <0>        -0.0766
     18 C13        -1.5169   -9.9120    1.4014 C.ar      1 <0>        -0.0694
     19 C14        -0.4385  -10.5456    2.0050 C.ar      1 <0>         0.1655
     20 C15         0.6822   -9.8116    2.3699 C.ar      1 <0>        -0.1470
     21 C16         0.7257   -8.4511    2.1273 C.ar      1 <0>         0.1016
     22 F1          1.8178   -7.7368    2.4770 F         1 <0>        -0.1210
     23 N3         -0.4816  -11.9245    2.2459 N.pl3     1 <0>        -0.6256
     24 C17        -0.9942  -12.7552    1.3167 C.2       1 <0>         0.5065
     25 S2         -1.4633  -12.1443   -0.2123 S.2       1 <0>        -0.4706
     26 N4         -1.1377  -14.0670    1.5911 N.am      1 <0>        -0.6410
     27 C18        -1.6504  -14.8977    0.6619 C.2       1 <0>         0.4828
     28 O3         -1.9825  -14.4651   -0.4209 O.2       1 <0>        -0.3885
     29 C19        -1.8107  -16.3644    0.9688 C.3       1 <0>        -0.0932
     30 C20        -2.4010  -17.0662   -0.2271 C.ar      1 <0>        -0.0804
     31 C21        -3.7729  -17.1746   -0.3573 C.ar      1 <0>        -0.1012
     32 C22        -4.3143  -17.8184   -1.4543 C.ar      1 <0>        -0.1182
     33 C23        -3.4838  -18.3533   -2.4213 C.ar      1 <0>        -0.1128
     34 C24        -2.1119  -18.2441   -2.2915 C.ar      1 <0>        -0.1181
     35 C25        -1.5706  -17.5966   -1.1967 C.ar      1 <0>        -0.1013
     36 H1         -1.4424    1.7716    1.0623 H         1 <0>         0.0819
     37 H2         -0.0317    2.0154    0.0046 H         1 <0>         0.0678
     38 H3         -1.6088    1.5858   -0.7001 H         1 <0>         0.0669
     39 H4         -1.9058   -1.2317    1.3476 H         1 <0>         0.0694
     40 H5         -0.1759   -1.4482    1.7063 H         1 <0>         0.0806
     41 H6         -1.0405   -0.0195    2.3223 H         1 <0>         0.0932
     42 H7          1.5274   -2.4007   -2.3282 H         1 <0>         0.1608
     43 H8          1.1650   -7.9731   -0.3225 H         1 <0>         0.1505
     44 H9          2.4048   -7.0902   -2.2554 H         1 <0>         0.1703
     45 H10        -2.3144   -8.0600    0.6954 H         1 <0>         0.1529
     46 H11        -2.3886  -10.4829    1.1176 H         1 <0>         0.1593
     47 H12         1.5210  -10.3037    2.8396 H         1 <0>         0.1499
     48 H13        -0.1424  -12.2816    3.0815 H         1 <0>         0.4123
     49 H14        -0.8719  -14.4131    2.4574 H         1 <0>         0.4127
     50 H15        -0.8367  -16.7960    1.1992 H         1 <0>         0.1093
     51 H16        -2.4738  -16.4860    1.8253 H         1 <0>         0.1094
     52 H17        -4.4217  -16.7567    0.3981 H         1 <0>         0.1202
     53 H18        -5.3862  -17.9037   -1.5557 H         1 <0>         0.1239
     54 H19        -3.9068  -18.8569   -3.2780 H         1 <0>         0.1233
     55 H20        -1.4631  -18.6623   -3.0468 H         1 <0>         0.1239
     56 H21        -0.4989  -17.5080   -1.0972 H         1 <0>         0.1202
@<TRIPOS>BOND
     1    1    2 1
     2    1   36 1
     3    1   37 1
     4    1   38 1
     5    2    3 1
     6    2    4 am
     7    3   39 1
     8    3   40 1
     9    3   41 1
    10    4    5 2
    11    4    6 1
    12    6   10 1
    13    6    7 2
    14    7    8 1
    15    7   42 1
    16    8   14 ar
    17    8    9 ar
    18    9   10 1
    19    9   11 ar
    20   11   12 ar
    21   11   15 1
    22   12   13 ar
    23   12   43 1
    24   13   14 ar
    25   13   44 1
    26   15   16 1
    27   16   21 ar
    28   16   17 ar
    29   17   18 ar
    30   17   45 1
    31   18   19 ar
    32   18   46 1
    33   19   20 ar
    34   19   23 1
    35   20   21 ar
    36   20   47 1
    37   21   22 1
    38   23   24 1
    39   23   48 1
    40   24   25 2
    41   24   26 1
    42   26   27 am
    43   26   49 1
    44   27   28 2
    45   27   29 1
    46   29   30 1
    47   29   50 1
    48   29   51 1
    49   30   35 ar
    50   30   31 ar
    51   31   32 ar
    52   31   52 1
    53   32   33 ar
    54   32   53 1
    55   33   34 ar
    56   33   54 1
    57   34   35 ar
    58   34   55 1
    59   35   56 1
@<TRIPOS>MOLECULE
CHEMBL478611
   39    41     0     0     0
SMALL
USER_CHARGES

@<TRIPOS>ATOM
      1 C1         -0.0167    1.3779    0.0096 C.ar      1 <0>        -0.1100
      2 C2          1.1696    2.0886    0.0021 C.ar      1 <0>        -0.1241
      3 C3          2.3802    1.4154   -0.0130 C.ar      1 <0>         0.0817
      4 C4          2.3990    0.0236   -0.0206 C.ar      1 <0>         0.0865
      5 C5          1.2071   -0.6822   -0.0130 C.ar      1 <0>        -0.1296
      6 C6          0.0021   -0.0041    0.0020 C.ar      1 <0>        -0.0883
      7 C7         -1.2936   -0.7736    0.0102 C.3       1 <0>        -0.0975
      8 C8         -1.7458   -1.0263   -1.4294 C.3       1 <0>         0.1146
      9 C9         -0.6900   -1.8625   -2.1638 C.3       1 <0>         0.0317
     10 O1         -1.0893   -1.9935   -3.5288 O.3       1 <0>        -0.2910
     11 C10        -2.3669   -2.3832   -3.7823 C.ar      1 <0>         0.1474
     12 C11        -3.3561   -2.3121   -2.8174 C.ar      1 <0>        -0.1926
     13 C12        -4.6472   -2.7142   -3.1200 C.ar      1 <0>        -0.0680
     14 C13        -4.9552   -3.1911   -4.3789 C.ar      1 <0>        -0.1643
     15 C14        -3.9690   -3.2691   -5.3503 C.ar      1 <0>         0.1241
     16 C15        -2.6743   -2.8650   -5.0532 C.ar      1 <0>         0.0462
     17 O2         -1.7039   -2.9403   -6.0043 O.3       1 <0>        -0.4778
     18 O3         -4.2689   -3.7398   -6.5905 O.3       1 <0>        -0.4890
     19 C16        -3.0619   -1.8078   -1.4271 C.3       1 <0>         0.1689
     20 H1         -3.8708   -1.1549   -1.0993 H         1 <0>         0.0862
     21 O4         -2.9547   -2.9167   -0.5322 O.3       1 <0>        -0.5523
     22 O5         -1.9275    0.2208   -2.1030 O.3       1 <0>        -0.5396
     23 O6          3.5850   -0.6417   -0.0359 O.3       1 <0>        -0.4868
     24 O7          3.5476    2.1129   -0.0209 O.3       1 <0>        -0.4873
     25 H2         -0.9598    1.9038    0.0259 H         1 <0>         0.1358
     26 H3          1.1522    3.1684    0.0077 H         1 <0>         0.1370
     27 H4          1.2190   -1.7621   -0.0189 H         1 <0>         0.1351
     28 H5         -1.1467   -1.7271    0.5175 H         1 <0>         0.0999
     29 H6         -2.0555   -0.1967    0.5344 H         1 <0>         0.0914
     30 H7          0.2769   -1.3622   -2.1104 H         1 <0>         0.1155
     31 H8         -0.6193   -2.8490   -1.7057 H         1 <0>         0.0829
     32 H9         -5.4180   -2.6546   -2.3659 H         1 <0>         0.1337
     33 H10        -5.9638   -3.5027   -4.6068 H         1 <0>         0.1385
     34 H11        -1.2285   -3.7823   -6.0154 H         1 <0>         0.3887
     35 H12        -4.5507   -3.0558   -7.2132 H         1 <0>         0.3980
     36 H13        -3.7540   -3.4584   -0.4797 H         1 <0>         0.3898
     37 H14        -1.1284    0.7635   -2.1482 H         1 <0>         0.3855
     38 H15         3.9367   -0.8389    0.8430 H         1 <0>         0.3898
     39 H16         3.8938    2.3101    0.8602 H         1 <0>         0.3893
@<TRIPOS>BOND
     1    1    6 ar
     2    1    2 ar
     3    1   25 1
     4    2    3 ar
     5    2   26 1
     6    3    4 ar
     7    3   24 1
     8    4    5 ar
     9    4   23 1
    10    5    6 ar
    11    5   27 1
    12    6    7 1
    13    7    8 1
    14    7   28 1
    15    7   29 1
    16    8   19 1
    17    8    9 1
    18    8   22 1
    19    9   10 1
    20    9   30 1
    21    9   31 1
    22   10   11 1
    23   11   16 ar
    24   11   12 ar
    25   12   13 ar
    26   12   19 1
    27   13   14 ar
    28   13   32 1
    29   14   15 ar
    30   14   33 1
    31   15   16 ar
    32   15   18 1
    33   16   17 1
    34   17   34 1
    35   18   35 1
    36   19   20 1
    37   19   21 1
    38   21   36 1
    39   22   37 1
    40   23   38 1
    41   24   39 1
@<TRIPOS>MOLECULE
CHEMBL499618
   46    48     0     0     0
SMALL
USER_CHARGES

@<TRIPOS>ATOM
      1 C1          0.0373   -0.7238   -3.2375 C.ar      1 <0>        -0.1009
      2 C2          1.0202   -0.0487   -3.9344 C.ar      1 <0>        -0.1319
      3 C3          1.3765    1.2363   -3.5612 C.ar      1 <0>         0.0843
      4 C4          0.7484    1.8472   -2.4889 C.ar      1 <0>        -0.1307
      5 C5         -0.2350    1.1755   -1.7893 C.ar      1 <0>        -0.1184
      6 C6         -0.5940   -0.1129   -2.1622 C.ar      1 <0>         0.1345
      7 N1         -1.5911   -0.7954   -1.4546 N.am      1 <0>        -0.6694
      8 C7         -1.5978   -2.1429   -1.4302 C.2       1 <0>         0.5130
      9 O1         -0.6836   -2.7631   -1.9310 O.2       1 <0>        -0.4744
     10 C8         -2.7412   -2.8791   -0.7808 C.3       1 <0>        -0.1650
     11 C9         -2.5081   -4.3641   -0.8881 C.2       1 <0>         0.5180
     12 O2         -1.5115   -4.7834   -1.4379 O.2       1 <0>        -0.4670
     13 N2         -3.4069   -5.2263   -0.3732 N.am      1 <0>        -0.6723
     14 C10        -3.1339   -6.6002   -0.3639 C.ar      1 <0>         0.1773
     15 C11        -1.8192   -7.0469   -0.3530 C.ar      1 <0>        -0.1018
     16 C12        -1.5495   -8.4014   -0.3444 C.ar      1 <0>        -0.1382
     17 C13        -2.5914   -9.3167   -0.3466 C.ar      1 <0>         0.0467
     18 C14        -3.9074   -8.8715   -0.3575 C.ar      1 <0>         0.1274
     19 C15        -4.1779   -7.5155   -0.3599 C.ar      1 <0>        -0.1499
     20 F1         -4.9224   -9.7630   -0.3606 F         1 <0>        -0.1175
     21 O3         -2.3249  -10.6503   -0.3386 O.3       1 <0>        -0.2411
     22 C16        -1.0303  -11.0407   -0.2212 C.ar      1 <0>         0.2558
     23 C17        -0.3704  -10.9670    1.0054 C.ar      1 <0>        -0.1954
     24 C18         0.9444  -11.3724    1.0882 C.ar      1 <0>         0.1720
     25 N3          1.5825  -11.8268    0.0254 N.ar      1 <0>        -0.5081
     26 C19         0.9930  -11.9128   -1.1584 C.ar      1 <0>         0.4709
     27 C20        -0.3317  -11.5290   -1.3190 C.ar      1 <0>        -0.2111
     28 N4          1.7065  -12.3970   -2.2490 N.pl3     1 <0>        -0.8134
     29 F2          2.3385    1.8948   -4.2440 F         1 <0>        -0.1373
     30 H1         -0.2431   -1.7244   -3.5314 H         1 <0>         0.1517
     31 H2          1.5115   -0.5235   -4.7708 H         1 <0>         0.1398
     32 H3          1.0280    2.8493   -2.1992 H         1 <0>         0.1422
     33 H4         -0.7241    1.6520   -0.9526 H         1 <0>         0.1377
     34 H5         -2.2770   -0.2983   -0.9819 H         1 <0>         0.4142
     35 H6         -2.8053   -2.5964    0.2700 H         1 <0>         0.1354
     36 H7         -3.6727   -2.6202   -1.2841 H         1 <0>         0.1357
     37 H8         -4.2429   -4.8954   -0.0091 H         1 <0>         0.4192
     38 H9         -1.0072   -6.3349   -0.3517 H         1 <0>         0.1617
     39 H10        -0.5267   -8.7480   -0.3363 H         1 <0>         0.1355
     40 H11        -5.2006   -7.1686   -0.3639 H         1 <0>         0.1588
     41 H12        -0.8836  -10.5960    1.8802 H         1 <0>         0.1895
     42 H13         1.4600  -11.3173    2.0357 H         1 <0>         0.2174
     43 H14        -0.8109  -11.6045   -2.2840 H         1 <0>         0.1895
     44 H15         2.6311  -12.6699   -2.1413 H         1 <0>         0.4253
     45 H16         2.5076  -12.1048    0.1133 H         1 <0>         0.4471
     46 H17         1.2797  -12.4619   -3.1176 H         1 <0>         0.4431
@<TRIPOS>BOND
     1    1    6 ar
     2    1    2 ar
     3    1   30 1
     4    2    3 ar
     5    2   31 1
     6    3    4 ar
     7    3   29 1
     8    4    5 ar
     9    4   32 1
    10    5    6 ar
    11    5   33 1
    12    6    7 1
    13    7    8 am
    14    7   34 1
    15    8    9 2
    16    8   10 1
    17   10   11 1
    18   10   35 1
    19   10   36 1
    20   11   12 2
    21   11   13 am
    22   13   14 1
    23   13   37 1
    24   14   19 ar
    25   14   15 ar
    26   15   16 ar
    27   15   38 1
    28   16   17 ar
    29   16   39 1
    30   17   18 ar
    31   17   21 1
    32   18   19 ar
    33   18   20 1
    34   19   40 1
    35   21   22 1
    36   22   23 ar
    37   22   27 ar
    38   23   41 1
    39   23   24 ar
    40   24   42 1
    41   24   25 ar
    42   25   45 1
    43   25   26 ar
    44   26   28 1
    45   26   27 ar
    46   27   43 1
    47   28   44 1
    48   28   46 1
@<TRIPOS>MOLECULE
CHEMBL473332
   36    39     0     0     0
SMALL
USER_CHARGES

@<TRIPOS>ATOM
      1 C1         -0.0167    1.3801    0.0096 C.ar      1 <0>        -0.0974
      2 C2          1.1650    2.0901    0.0022 C.ar      1 <0>        -0.0762
      3 C3          2.3865    1.4092   -0.0132 C.ar      1 <0>        -0.0544
      4 C4          2.3991    0.0094   -0.0208 C.ar      1 <0>        -0.0142
      5 C5          1.2064   -0.6875   -0.0132 C.ar      1 <0>        -0.0307
      6 C6          0.0021   -0.0041    0.0020 C.ar      1 <0>        -0.0825
      7 Cl1         1.2173   -2.4234   -0.0232 Cl        1 <0>        -0.0345
      8 Cl2         3.9086   -0.8478   -0.0405 Cl        1 <0>        -0.0283
      9 C7          3.6538    2.1614   -0.0217 C.2       1 <0>         0.0808
     10 C8          4.4567    2.2809   -1.2413 C.ar      1 <0>        -0.1295
     11 C9          4.0395    1.6809   -2.4371 C.ar      1 <0>        -0.0618
     12 C10         4.8051    1.8065   -3.5624 C.ar      1 <0>         0.0696
     13 C11         6.0023    2.5311   -3.5240 C.ar      1 <0>         0.1520
     14 C12         6.4264    3.1282   -2.3499 C.ar      1 <0>        -0.1503
     15 C13         5.6612    3.0115   -1.1972 C.ar      1 <0>         0.1572
     16 O1          6.0674    3.5919   -0.0496 O.3       1 <0>        -0.2042
     17 C14         5.3583    3.5067    1.0949 C.2       1 <0>         0.2068
     18 C15         5.8285    4.1247    2.2388 C.2       1 <0>        -0.2924
     19 C16         5.0991    4.0406    3.4282 C.2       1 <0>         0.3880
     20 O2          5.5182    4.5894    4.4407 O.2       1 <0>        -0.4820
     21 C17         3.8791    3.3253    3.4688 C.2       1 <0>         0.0619
     22 C18         3.4089    2.7145    2.3491 C.2       1 <0>        -0.1287
     23 C19         4.1344    2.7977    1.1441 C.2       1 <0>        -0.0947
     24 O3          3.1757    3.2483    4.6302 O.3       1 <0>        -0.4575
     25 O4          6.7538    2.6486   -4.6482 O.3       1 <0>        -0.4765
     26 O5          4.4024    1.2247   -4.7240 O.3       1 <0>        -0.4780
     27 H1         -0.9602    1.9055    0.0260 H         1 <0>         0.1494
     28 H2          1.1474    3.1700    0.0078 H         1 <0>         0.1462
     29 H3         -0.9275   -0.5539    0.0080 H         1 <0>         0.1501
     30 H4          3.1165    1.1210   -2.4693 H         1 <0>         0.1478
     31 H5          7.3518    3.6846   -2.3302 H         1 <0>         0.1603
     32 H6          6.7592    4.6720    2.2134 H         1 <0>         0.1556
     33 H7          2.4776    2.1686    2.3822 H         1 <0>         0.1456
     34 H8          3.5882    3.7127    5.3714 H         1 <0>         0.4094
     35 H9          6.5332    3.4185   -5.1901 H         1 <0>         0.4007
     36 H10         3.8473    1.7921   -5.2762 H         1 <0>         0.3923
@<TRIPOS>BOND
     1    1    6 ar
     2    1    2 ar
     3    1   27 1
     4    2    3 ar
     5    2   28 1
     6    3    4 ar
     7    3    9 1
     8    4    5 ar
     9    4    8 1
    10    5    6 ar
    11    5    7 1
    12    6   29 1
    13    9   23 2
    14    9   10 1
    15   10   15 ar
    16   10   11 ar
    17   11   12 ar
    18   11   30 1
    19   12   13 ar
    20   12   26 1
    21   13   14 ar
    22   13   25 1
    23   14   15 ar
    24   14   31 1
    25   15   16 1
    26   16   17 1
    27   17   23 1
    28   17   18 2
    29   18   19 1
    30   18   32 1
    31   19   20 2
    32   19   21 1
    33   21   22 2
    34   21   24 1
    35   22   23 1
    36   22   33 1
    37   24   34 1
    38   25   35 1
    39   26   36 1
@<TRIPOS>MOLECULE
CHEMBL462622
   50    53     0     0     0
SMALL
USER_CHARGES

@<TRIPOS>ATOM
      1 C1          0.4552   -0.3136    2.0497 C.1       1 <0>        -0.1847
      2 C2          0.0002    0.0106    1.0171 C.1       1 <0>        -0.1301
      3 C3         -0.5548    0.4061   -0.2423 C.ar      1 <0>        -0.1398
      4 C4         -1.7418    1.1526   -0.2977 C.ar      1 <0>         0.2233
      5 C5         -2.2375    1.5104   -1.5486 C.ar      1 <0>        -0.3047
      6 C6         -1.5544    1.1248   -2.6832 C.ar      1 <0>         0.1984
      7 N1         -0.4388    0.4223   -2.6056 N.ar      1 <0>        -0.5589
      8 C7          0.0806    0.0599   -1.4432 C.ar      1 <0>         0.4577
      9 N2          1.2588   -0.6725   -1.4132 N.pl3     1 <0>        -0.8359
     10 O1         -2.3896    1.5155    0.8376 O.3       1 <0>        -0.2308
     11 C8         -3.4734    2.3289    0.7221 C.ar      1 <0>         0.0182
     12 C9         -3.3847    3.6601    1.1007 C.ar      1 <0>        -0.0628
     13 C10        -4.4847    4.4869    0.9839 C.ar      1 <0>        -0.1460
     14 C11        -5.6810    3.9858    0.4874 C.ar      1 <0>         0.1883
     15 C12        -5.7711    2.6532    0.1081 C.ar      1 <0>        -0.1678
     16 C13        -4.6677    1.8274    0.2196 C.ar      1 <0>         0.1136
     17 F1         -4.7526    0.5320   -0.1544 F         1 <0>        -0.1222
     18 N3         -6.7962    4.8242    0.3700 N.am      1 <0>        -0.6565
     19 C14        -8.0383    4.3022    0.4048 C.2       1 <0>         0.5844
     20 O2         -8.1916    3.0953    0.3915 O.2       1 <0>        -0.5203
     21 C15        -9.2083    5.1914    0.4589 C.2       1 <0>        -0.2848
     22 C16       -10.4841    4.6724    0.6729 C.2       1 <0>         0.0788
     23 C17       -11.5701    5.5462    0.7180 C.2       1 <0>        -0.2333
     24 C18       -11.3786    6.8803    0.5546 C.2       1 <0>         0.1717
     25 N4        -10.1404    7.3919    0.3456 N.am      1 <0>        -0.4430
     26 C19        -9.0575    6.5929    0.3001 C.2       1 <0>         0.5363
     27 O3         -7.9516    7.0719    0.1173 O.2       1 <0>        -0.5330
     28 C20        -9.9845    8.7742    0.1812 C.ar      1 <0>         0.0764
     29 C21        -9.6114    9.2898   -1.0530 C.ar      1 <0>        -0.0557
     30 C22        -9.4582   10.6529   -1.2130 C.ar      1 <0>        -0.1413
     31 C23        -9.6760   11.5054   -0.1435 C.ar      1 <0>         0.1214
     32 C24       -10.0477   10.9931    1.0883 C.ar      1 <0>        -0.1423
     33 C25       -10.2084    9.6312    1.2507 C.ar      1 <0>        -0.0729
     34 F2         -9.5251   12.8386   -0.3020 F         1 <0>        -0.1292
     35 H1          0.8622   -0.6036    2.9731 H         1 <0>         0.2246
     36 H2         -3.1487    2.0845   -1.6298 H         1 <0>         0.1387
     37 H3         -1.9393    1.4023   -3.6534 H         1 <0>         0.1657
     38 H4          1.6401   -0.9432   -0.5634 H         1 <0>         0.4115
     39 H5          1.7010   -0.9138   -2.2421 H         1 <0>         0.4097
     40 H6         -2.4549    4.0504    1.4875 H         1 <0>         0.1484
     41 H7         -4.4146    5.5235    1.2789 H         1 <0>         0.1439
     42 H8         -6.7011    2.2630   -0.2780 H         1 <0>         0.1776
     43 H9         -6.6749    5.7807    0.2635 H         1 <0>         0.4296
     44 H10       -10.6294    3.6099    0.8013 H         1 <0>         0.1575
     45 H11       -12.5655    5.1608    0.8828 H         1 <0>         0.1646
     46 H12       -12.2281    7.5462    0.5913 H         1 <0>         0.1753
     47 H13        -9.4407    8.6253   -1.8871 H         1 <0>         0.1401
     48 H14        -9.1680   11.0543   -2.1727 H         1 <0>         0.1489
     49 H15       -10.2164   11.6595    1.9213 H         1 <0>         0.1491
     50 H16       -10.5030    9.2325    2.2102 H         1 <0>         0.1423
@<TRIPOS>BOND
     1    1    2 3
     2    1   35 1
     3    2    3 1
     4    3    8 ar
     5    3    4 ar
     6    4    5 ar
     7    4   10 1
     8    5    6 ar
     9    5   36 1
    10    6    7 ar
    11    6   37 1
    12    7    8 ar
    13    8    9 1
    14    9   38 1
    15    9   39 1
    16   10   11 1
    17   11   16 ar
    18   11   12 ar
    19   12   13 ar
    20   12   40 1
    21   13   14 ar
    22   13   41 1
    23   14   15 ar
    24   14   18 1
    25   15   16 ar
    26   15   42 1
    27   16   17 1
    28   18   19 am
    29   18   43 1
    30   19   20 2
    31   19   21 1
    32   21   26 1
    33   21   22 2
    34   22   23 1
    35   22   44 1
    36   23   24 2
    37   23   45 1
    38   24   25 1
    39   24   46 1
    40   25   26 am
    41   25   28 1
    42   26   27 2
    43   28   33 ar
    44   28   29 ar
    45   29   30 ar
    46   29   47 1
    47   30   31 ar
    48   30   48 1
    49   31   32 ar
    50   31   34 1
    51   32   33 ar
    52   32   49 1
    53   33   50 1
@<TRIPOS>MOLECULE
CHEMBL462232
   59    64     0     0     0
SMALL
USER_CHARGES

@<TRIPOS>ATOM
      1 C1          1.0839    0.6875    0.7361 C.3       1 <0>         0.0697
      2 N1          0.0312   -0.0418    0.0246 N.pl3     1 <0>        -0.4613
      3 C2          0.2146   -0.9709   -0.9601 C.2       1 <0>        -0.0132
      4 C3         -1.0238   -1.3908   -1.3373 C.2       1 <0>         0.0609
      5 N2         -1.9294   -0.7240   -0.5909 N.2       1 <0>        -0.4686
      6 C4         -1.3053    0.0767    0.2263 C.2       1 <0>         0.1966
      7 C5         -1.3235   -2.3967   -2.3785 C.2       1 <0>        -0.0117
      8 C6         -2.5344   -2.8469   -2.7970 C.2       1 <0>        -0.1348
      9 C7         -2.6109   -3.8187   -3.8122 C.ar      1 <0>         0.1654
     10 C8         -1.3697   -4.2553   -4.3246 C.ar      1 <0>        -0.2089
     11 S1         -0.1836   -3.3132   -3.4009 S.3       1 <0>         0.1031
     12 C9         -1.2869   -5.2060   -5.3248 C.ar      1 <0>         0.2124
     13 C10        -2.4766   -5.7331   -5.8249 C.ar      1 <0>        -0.2398
     14 C11        -3.6721   -5.2782   -5.2953 C.ar      1 <0>         0.1598
     15 N3         -3.7213   -4.3760   -4.3480 N.ar      1 <0>        -0.4774
     16 O1         -0.0844   -5.6133   -5.8055 O.3       1 <0>        -0.2358
     17 C12        -0.0691   -6.6283   -6.7105 C.ar      1 <0>         0.0251
     18 C13         0.3713   -7.8878   -6.3324 C.ar      1 <0>        -0.0616
     19 C14         0.3876   -8.9191   -7.2510 C.ar      1 <0>        -0.1417
     20 C15        -0.0375   -8.6959   -8.5538 C.ar      1 <0>         0.1967
     21 C16        -0.4791   -7.4356   -8.9335 C.ar      1 <0>        -0.1611
     22 C17        -0.5001   -6.4048   -8.0122 C.ar      1 <0>         0.1158
     23 F1         -0.9344   -5.1792   -8.3792 F         1 <0>        -0.1188
     24 N4         -0.0203   -9.7423   -9.4854 N.am      1 <0>        -0.6681
     25 C18         0.0938   -9.4718  -10.8008 C.2       1 <0>         0.7293
     26 O2          0.0392   -8.3221  -11.1918 O.2       1 <0>        -0.5012
     27 N5          0.2685  -10.4759  -11.6826 N.am      1 <0>        -0.5854
     28 C19         0.2327  -11.9099  -11.3591 C.3       1 <0>         0.0678
     29 C20         0.4876  -12.6004  -12.7130 C.3       1 <0>         0.0885
     30 N6          0.6400  -11.4821  -13.6556 N.am      1 <0>        -0.5626
     31 C21         0.4967  -10.3262  -12.9940 C.2       1 <0>         0.7076
     32 O3          0.5708   -9.2399  -13.5341 O.2       1 <0>        -0.5029
     33 C22         0.8892  -11.6059  -15.0271 C.ar      1 <0>         0.1799
     34 C23         1.2132  -10.4845  -15.7794 C.ar      1 <0>        -0.1498
     35 C24         1.4591  -10.6100  -17.1326 C.ar      1 <0>        -0.0887
     36 C25         1.3828  -11.8507  -17.7385 C.ar      1 <0>        -0.1409
     37 C26         1.0598  -12.9692  -16.9923 C.ar      1 <0>        -0.0917
     38 C27         0.8185  -12.8512  -15.6375 C.ar      1 <0>        -0.1546
     39 H1          1.3849    0.1223    1.6182 H         1 <0>         0.0824
     40 H2          1.9430    0.8190    0.0783 H         1 <0>         0.0895
     41 H3          0.7070    1.6637    1.0412 H         1 <0>         0.0934
     42 H4          1.1593   -1.3068   -1.3617 H         1 <0>         0.1825
     43 H5         -1.7758    0.7307    0.9455 H         1 <0>         0.2146
     44 H6         -3.4384   -2.4596   -2.3507 H         1 <0>         0.1546
     45 H7         -2.4660   -6.4780   -6.6067 H         1 <0>         0.1457
     46 H8         -4.5978   -5.6821   -5.6778 H         1 <0>         0.1665
     47 H9          0.7021   -8.0622   -5.3192 H         1 <0>         0.1522
     48 H10         0.7315   -9.8994   -6.9558 H         1 <0>         0.1469
     49 H11        -0.8095   -7.2615   -9.9468 H         1 <0>         0.1784
     50 H12        -0.0906  -10.6615   -9.1836 H         1 <0>         0.4160
     51 H13         1.0191  -12.1613  -10.6473 H         1 <0>         0.1057
     52 H14        -0.7446  -12.1890  -10.9653 H         1 <0>         0.1059
     53 H15         1.4005  -13.1946  -12.6735 H         1 <0>         0.1024
     54 H16        -0.3631  -13.2223  -12.9914 H         1 <0>         0.1015
     55 H17         1.2727   -9.5152  -15.3068 H         1 <0>         0.1541
     56 H18         1.7108   -9.7383  -17.7183 H         1 <0>         0.1292
     57 H19         1.5754  -11.9463  -18.7969 H         1 <0>         0.1255
     58 H20         1.0007  -13.9367  -17.4685 H         1 <0>         0.1291
     59 H21         0.5710  -13.7258  -15.0543 H         1 <0>         0.1260
@<TRIPOS>BOND
     1    1    2 1
     2    1   39 1
     3    1   40 1
     4    1   41 1
     5    2    6 1
     6    2    3 1
     7    3    4 2
     8    3   42 1
     9    4    5 1
    10    4    7 1
    11    5    6 2
    12    6   43 1
    13    7   11 1
    14    7    8 2
    15    8    9 1
    16    8   44 1
    17    9   15 ar
    18    9   10 ar
    19   10   11 1
    20   10   12 ar
    21   12   13 ar
    22   12   16 1
    23   13   14 ar
    24   13   45 1
    25   14   15 ar
    26   14   46 1
    27   16   17 1
    28   17   22 ar
    29   17   18 ar
    30   18   19 ar
    31   18   47 1
    32   19   20 ar
    33   19   48 1
    34   20   21 ar
    35   20   24 1
    36   21   22 ar
    37   21   49 1
    38   22   23 1
    39   24   25 am
    40   24   50 1
    41   25   26 2
    42   25   27 am
    43   27   31 am
    44   27   28 1
    45   28   29 1
    46   28   51 1
    47   28   52 1
    48   29   30 1
    49   29   53 1
    50   29   54 1
    51   30   31 am
    52   30   33 1
    53   31   32 2
    54   33   38 ar
    55   33   34 ar
    56   34   35 ar
    57   34   55 1
    58   35   36 ar
    59   35   56 1
    60   36   37 ar
    61   36   57 1
    62   37   38 ar
    63   37   58 1
    64   38   59 1
@<TRIPOS>MOLECULE
CHEMBL462232__1
   60    65     0     0     0
SMALL
USER_CHARGES

@<TRIPOS>ATOM
      1 C1          1.0839    0.6875    0.7361 C.3       1 <0>         0.0540
      2 N1          0.0312   -0.0418    0.0246 N.pl3     1 <0>        -0.4063
      3 C2          0.2146   -0.9709   -0.9601 C.2       1 <0>         0.0498
      4 C3         -1.0238   -1.3908   -1.3373 C.2       1 <0>         0.1228
      5 N2         -1.9294   -0.7240   -0.5909 N.pl3     1 <0>        -0.4713
      6 C4         -1.3053    0.0767    0.2263 C.cat     1 <0>         0.3042
      7 C5         -1.3235   -2.3967   -2.3785 C.2       1 <0>        -0.1208
      8 C6         -2.5344   -2.8469   -2.7970 C.2       1 <0>        -0.0826
      9 C7         -2.6109   -3.8187   -3.8122 C.ar      1 <0>         0.1384
     10 C8         -1.3697   -4.2553   -4.3246 C.ar      1 <0>        -0.1936
     11 S1         -0.1836   -3.3132   -3.4009 S.3       1 <0>         0.1711
     12 C9         -1.2869   -5.2060   -5.3248 C.ar      1 <0>         0.2110
     13 C10        -2.4766   -5.7331   -5.8249 C.ar      1 <0>        -0.2136
     14 C11        -3.6721   -5.2782   -5.2953 C.ar      1 <0>         0.1678
     15 N3         -3.7213   -4.3760   -4.3480 N.ar      1 <0>        -0.4685
     16 O1         -0.0844   -5.6133   -5.8055 O.3       1 <0>        -0.2316
     17 C12        -0.0691   -6.6283   -6.7105 C.ar      1 <0>         0.0109
     18 C13         0.3713   -7.8878   -6.3324 C.ar      1 <0>        -0.0574
     19 C14         0.3876   -8.9191   -7.2510 C.ar      1 <0>        -0.1417
     20 C15        -0.0375   -8.6959   -8.5538 C.ar      1 <0>         0.2075
     21 C16        -0.4791   -7.4356   -8.9335 C.ar      1 <0>        -0.1611
     22 C17        -0.5001   -6.4048   -8.0122 C.ar      1 <0>         0.1174
     23 F1         -0.9344   -5.1792   -8.3792 F         1 <0>        -0.1199
     24 N4         -0.0203   -9.7423   -9.4854 N.am      1 <0>        -0.6695
     25 C18         0.0938   -9.4718  -10.8008 C.2       1 <0>         0.7308
     26 O2          0.0392   -8.3221  -11.1918 O.2       1 <0>        -0.5017
     27 N5          0.2685  -10.4759  -11.6826 N.am      1 <0>        -0.5852
     28 C19         0.2327  -11.9099  -11.3591 C.3       1 <0>         0.0677
     29 C20         0.4876  -12.6004  -12.7130 C.3       1 <0>         0.0878
     30 N6          0.6400  -11.4821  -13.6556 N.am      1 <0>        -0.5611
     31 C21         0.4967  -10.3262  -12.9940 C.2       1 <0>         0.7074
     32 O3          0.5708   -9.2399  -13.5341 O.2       1 <0>        -0.5029
     33 C22         0.8892  -11.6059  -15.0271 C.ar      1 <0>         0.1771
     34 C23         1.2132  -10.4845  -15.7794 C.ar      1 <0>        -0.1496
     35 C24         1.4591  -10.6100  -17.1326 C.ar      1 <0>        -0.0888
     36 C25         1.3828  -11.8507  -17.7385 C.ar      1 <0>        -0.1387
     37 C26         1.0598  -12.9692  -16.9923 C.ar      1 <0>        -0.0910
     38 C27         0.8185  -12.8512  -15.6375 C.ar      1 <0>        -0.1534
     39 H1          1.3849    0.1223    1.6182 H         1 <0>         0.1143
     40 H2          1.9430    0.8190    0.0783 H         1 <0>         0.1203
     41 H3          0.7070    1.6637    1.0412 H         1 <0>         0.1192
     42 H4          1.1593   -1.3068   -1.3617 H         1 <0>         0.2279
     43 H5         -1.7758    0.7307    0.9455 H         1 <0>         0.2689
     44 H6         -3.4384   -2.4596   -2.3507 H         1 <0>         0.1498
     45 H7         -2.4660   -6.4780   -6.6067 H         1 <0>         0.1556
     46 H8         -4.5978   -5.6821   -5.6778 H         1 <0>         0.1764
     47 H9          0.7021   -8.0622   -5.3192 H         1 <0>         0.1527
     48 H10         0.7315   -9.8994   -6.9558 H         1 <0>         0.1500
     49 H11        -0.8095   -7.2615   -9.9468 H         1 <0>         0.1812
     50 H12        -0.0906  -10.6615   -9.1836 H         1 <0>         0.4178
     51 H13         1.0191  -12.1613  -10.6473 H         1 <0>         0.1060
     52 H14        -0.7446  -12.1890  -10.9653 H         1 <0>         0.1062
     53 H15         1.4005  -13.1946  -12.6735 H         1 <0>         0.1034
     54 H16        -0.3631  -13.2223  -12.9914 H         1 <0>         0.1026
     55 H17         1.2727   -9.5152  -15.3068 H         1 <0>         0.1534
     56 H18         1.7108   -9.7383  -17.7183 H         1 <0>         0.1296
     57 H19         1.5754  -11.9463  -18.7969 H         1 <0>         0.1267
     58 H20         1.0007  -13.9367  -17.4685 H         1 <0>         0.1302
     59 H21         0.5710  -13.7258  -15.0543 H         1 <0>         0.1263
     60 H22        -2.8920   -0.8273   -0.6506 H         1 <0>         0.4660
@<TRIPOS>BOND
     1    1    2 1
     2    1   39 1
     3    1   40 1
     4    1   41 1
     5    2    6 1
     6    2    3 1
     7    3    4 2
     8    3   42 1
     9    4    5 1
    10    4    7 1
    11    5    6 2
    12    5   60 1
    13    6   43 1
    14    7   11 1
    15    7    8 2
    16    8    9 1
    17    8   44 1
    18    9   15 ar
    19    9   10 ar
    20   10   11 1
    21   10   12 ar
    22   12   13 ar
    23   12   16 1
    24   13   14 ar
    25   13   45 1
    26   14   15 ar
    27   14   46 1
    28   16   17 1
    29   17   22 ar
    30   17   18 ar
    31   18   19 ar
    32   18   47 1
    33   19   20 ar
    34   19   48 1
    35   20   21 ar
    36   20   24 1
    37   21   22 ar
    38   21   49 1
    39   22   23 1
    40   24   25 am
    41   24   50 1
    42   25   26 2
    43   25   27 am
    44   27   31 am
    45   27   28 1
    46   28   29 1
    47   28   51 1
    48   28   52 1
    49   29   30 1
    50   29   53 1
    51   29   54 1
    52   30   31 am
    53   30   33 1
    54   31   32 2
    55   33   38 ar
    56   33   34 ar
    57   34   35 ar
    58   34   55 1
    59   35   36 ar
    60   35   56 1
    61   36   37 ar
    62   36   57 1
    63   37   38 ar
    64   37   58 1
    65   38   59 1
@<TRIPOS>MOLECULE
CHEMBL462023
   66    71     0     0     0
SMALL
USER_CHARGES

@<TRIPOS>ATOM
      1 C1          0.6284   -0.7620    1.5599 C.3       1 <0>        -0.1655
      2 C2         -0.8376   -1.1651    1.7309 C.3       1 <0>         0.1251
      3 C3         -1.4524   -0.3740    2.8872 C.3       1 <0>        -0.1656
      4 N1         -1.5710   -0.8751    0.4964 N.pl3     1 <0>        -0.4490
      5 C4         -2.2402   -1.7804   -0.2776 C.2       1 <0>        -0.0135
      6 C5         -2.7732   -1.0849   -1.3193 C.2       1 <0>         0.0606
      7 N2         -2.4264    0.2107   -1.1662 N.2       1 <0>        -0.4690
      8 C6         -1.7144    0.3378   -0.0821 C.2       1 <0>         0.1992
      9 C7         -3.5849   -1.6470   -2.4197 C.2       1 <0>        -0.0092
     10 C8         -4.1338   -1.0023   -3.4814 C.2       1 <0>        -0.1363
     11 C9         -4.8805   -1.7228   -4.4324 C.ar      1 <0>         0.1662
     12 C10        -4.9958   -3.1083   -4.1855 C.ar      1 <0>        -0.2098
     13 S1         -4.0785   -3.3414   -2.6849 S.3       1 <0>         0.1024
     14 C11        -5.6986   -3.9444   -5.0329 C.ar      1 <0>         0.2120
     15 C12        -6.3013   -3.3795   -6.1558 C.ar      1 <0>        -0.2401
     16 C13        -6.1644   -2.0174   -6.3613 C.ar      1 <0>         0.1592
     17 N3         -5.4927   -1.2485   -5.5417 N.ar      1 <0>        -0.4774
     18 O1         -5.7983   -5.2744   -4.7796 O.3       1 <0>        -0.2377
     19 C14        -6.5899   -6.0220   -5.5944 C.ar      1 <0>         0.0285
     20 C15        -7.9167   -6.2450   -5.2580 C.ar      1 <0>        -0.0684
     21 C16        -8.7214   -7.0040   -6.0848 C.ar      1 <0>        -0.1163
     22 C17        -8.2026   -7.5450   -7.2538 C.ar      1 <0>         0.1818
     23 C18        -6.8745   -7.3224   -7.5917 C.ar      1 <0>        -0.1692
     24 C19        -6.0709   -6.5574   -6.7667 C.ar      1 <0>         0.1209
     25 F1         -4.7799   -6.3356   -7.0973 F         1 <0>        -0.1201
     26 N4         -9.0189   -8.3156   -8.0917 N.am      1 <0>        -0.6678
     27 C20       -10.3227   -8.0048   -8.2339 C.2       1 <0>         0.5313
     28 O2        -10.8059   -7.1036   -7.5816 O.2       1 <0>        -0.5016
     29 C21       -11.1799   -8.7769   -9.2034 C.3       1 <0>        -0.1227
     30 C22       -10.7492   -8.5026  -10.6629 C.3       1 <0>        -0.1437
     31 C23       -12.0497   -8.4801  -11.4355 C.2       1 <0>         0.5195
     32 O3        -12.1431   -8.5728  -12.6412 O.2       1 <0>        -0.4997
     33 N5        -13.0866   -8.3429  -10.5913 N.am      1 <0>        -0.5576
     34 C24       -12.6319   -8.2494   -9.1990 C.3       1 <0>         0.1103
     35 C25       -14.4274   -8.2954  -10.9888 C.ar      1 <0>         0.1607
     36 C26       -14.7683   -8.5230  -12.3156 C.ar      1 <0>        -0.1550
     37 C27       -16.0926   -8.4754  -12.7048 C.ar      1 <0>        -0.0913
     38 C28       -17.0786   -8.2014  -11.7748 C.ar      1 <0>        -0.1422
     39 C29       -16.7424   -7.9738  -10.4529 C.ar      1 <0>        -0.0923
     40 C30       -15.4205   -8.0261  -10.0562 C.ar      1 <0>        -0.1559
     41 H1          1.1741   -0.9778    2.4784 H         1 <0>         0.0816
     42 H2          1.0664   -1.3256    0.7361 H         1 <0>         0.0662
     43 H3          0.6891    0.3045    1.3432 H         1 <0>         0.0679
     44 H4         -0.8983   -2.2316    1.9476 H         1 <0>         0.1042
     45 H5         -2.4969   -0.6611    3.0091 H         1 <0>         0.0662
     46 H6         -0.9067   -0.5898    3.8058 H         1 <0>         0.0815
     47 H7         -1.3918    0.6925    2.6706 H         1 <0>         0.0679
     48 H8         -2.3288   -2.8417   -0.0981 H         1 <0>         0.1808
     49 H9         -1.3028    1.2634    0.2924 H         1 <0>         0.2095
     50 H10        -3.9977    0.0629   -3.5959 H         1 <0>         0.1546
     51 H11        -6.8612   -3.9899   -6.8488 H         1 <0>         0.1463
     52 H12        -6.6286   -1.5728   -7.2292 H         1 <0>         0.1664
     53 H13        -8.3208   -5.8252   -4.3486 H         1 <0>         0.1496
     54 H14        -9.7545   -7.1772   -5.8220 H         1 <0>         0.1569
     55 H15        -6.4704   -7.7433   -8.5006 H         1 <0>         0.1514
     56 H16        -8.6459   -9.0728   -8.5695 H         1 <0>         0.4193
     57 H17       -11.1519   -9.8438   -8.9818 H         1 <0>         0.1305
     58 H18       -10.2447   -7.5393  -10.7371 H         1 <0>         0.1163
     59 H19       -10.1032   -9.3017  -11.0266 H         1 <0>         0.1212
     60 H20       -13.2564   -8.8692   -8.5557 H         1 <0>         0.0976
     61 H21       -12.6555   -7.2127   -8.8633 H         1 <0>         0.1035
     62 H22       -13.9986   -8.7367  -13.0425 H         1 <0>         0.1537
     63 H23       -16.3583   -8.6519  -13.7366 H         1 <0>         0.1277
     64 H24       -18.1135   -8.1646  -12.0816 H         1 <0>         0.1244
     65 H25       -17.5148   -7.7597   -9.7291 H         1 <0>         0.1278
     66 H26       -15.1591   -7.8534   -9.0226 H         1 <0>         0.1262
@<TRIPOS>BOND
     1    1    2 1
     2    1   41 1
     3    1   42 1
     4    1   43 1
     5    2    3 1
     6    2    4 1
     7    2   44 1
     8    3   45 1
     9    3   46 1
    10    3   47 1
    11    4    8 1
    12    4    5 1
    13    5    6 2
    14    5   48 1
    15    6    7 1
    16    6    9 1
    17    7    8 2
    18    8   49 1
    19    9   13 1
    20    9   10 2
    21   10   11 1
    22   10   50 1
    23   11   17 ar
    24   11   12 ar
    25   12   13 1
    26   12   14 ar
    27   14   15 ar
    28   14   18 1
    29   15   16 ar
    30   15   51 1
    31   16   17 ar
    32   16   52 1
    33   18   19 1
    34   19   24 ar
    35   19   20 ar
    36   20   21 ar
    37   20   53 1
    38   21   22 ar
    39   21   54 1
    40   22   23 ar
    41   22   26 1
    42   23   24 ar
    43   23   55 1
    44   24   25 1
    45   26   27 am
    46   26   56 1
    47   27   28 2
    48   27   29 1
    49   29   34 1
    50   29   30 1
    51   29   57 1
    52   30   31 1
    53   30   58 1
    54   30   59 1
    55   31   32 2
    56   31   33 am
    57   33   34 1
    58   33   35 1
    59   34   60 1
    60   34   61 1
    61   35   40 ar
    62   35   36 ar
    63   36   37 ar
    64   36   62 1
    65   37   38 ar
    66   37   63 1
    67   38   39 ar
    68   38   64 1
    69   39   40 ar
    70   39   65 1
    71   40   66 1
@<TRIPOS>MOLECULE
CHEMBL462023__1
   67    72     0     0     0
SMALL
USER_CHARGES

@<TRIPOS>ATOM
      1 C1          1.0569   -0.7404   -1.3166 C.3       1 <0>        -0.1761
      2 C2          1.9478   -1.1171   -0.1311 C.3       1 <0>         0.1176
      3 C3          3.2363   -0.2935   -0.1795 C.3       1 <0>        -0.1762
      4 N1          1.2381   -0.8404    1.1203 N.pl3     1 <0>        -0.3979
      5 C4          0.9251   -1.7505    2.0900 C.2       1 <0>         0.0507
      6 C5          0.2721   -1.0677    3.0699 C.2       1 <0>         0.1225
      7 N2          0.1988    0.2251    2.6885 N.pl3     1 <0>        -0.4709
      8 C6          0.7784    0.3628    1.5295 C.cat     1 <0>         0.3023
      9 C7         -0.2610   -1.6390    4.3250 C.2       1 <0>        -0.1181
     10 C8         -0.9221   -1.0072    5.3289 C.2       1 <0>        -0.0839
     11 C9         -1.3542   -1.7348    6.4536 C.ar      1 <0>         0.1394
     12 C10        -1.0481   -3.1131    6.4348 C.ar      1 <0>        -0.1944
     13 S1         -0.2014   -3.3304    4.8910 S.3       1 <0>         0.1708
     14 C11        -1.4096   -3.9550    7.4700 C.ar      1 <0>         0.2103
     15 C12        -2.0948   -3.4034    8.5514 C.ar      1 <0>        -0.2138
     16 C13        -2.3754   -2.0479    8.5309 C.ar      1 <0>         0.1673
     17 N3         -2.0207   -1.2734    7.5368 N.ar      1 <0>        -0.4684
     18 O1         -1.1071   -5.2780    7.4344 O.3       1 <0>        -0.2334
     19 C14        -1.3982   -6.0292    8.5300 C.ar      1 <0>         0.0142
     20 C15        -0.4383   -6.2248    9.5116 C.ar      1 <0>        -0.0651
     21 C16        -0.7330   -6.9876   10.6246 C.ar      1 <0>        -0.1165
     22 C17        -1.9908   -7.5598   10.7615 C.ar      1 <0>         0.1922
     23 C18        -2.9527   -7.3648    9.7795 C.ar      1 <0>        -0.1690
     24 C19        -2.6591   -6.5960    8.6684 C.ar      1 <0>         0.1240
     25 F1         -3.5961   -6.4010    7.7149 F         1 <0>        -0.1205
     26 N4         -2.2890   -8.3342   11.8902 N.am      1 <0>        -0.6693
     27 C20        -1.7684   -8.0060   13.0892 C.2       1 <0>         0.5338
     28 O2         -0.9847   -7.0846   13.1785 O.2       1 <0>        -0.5015
     29 C21        -2.1600   -8.7840   14.3191 C.3       1 <0>        -0.1236
     30 C22        -3.6458   -8.5456   14.6748 C.3       1 <0>        -0.1434
     31 C23        -3.6655   -8.5183   16.1872 C.2       1 <0>         0.5186
     32 O3         -4.6604   -8.6336   16.8713 O.2       1 <0>        -0.4976
     33 N5         -2.4197   -8.3482   16.6627 N.am      1 <0>        -0.5575
     34 C24        -1.4439   -8.2339   15.5725 C.3       1 <0>         0.1109
     35 C25        -2.0951   -8.2877   18.0225 C.ar      1 <0>         0.1587
     36 C26        -3.0678   -8.5365   18.9818 C.ar      1 <0>        -0.1543
     37 C27        -2.7442   -8.4760   20.3231 C.ar      1 <0>        -0.0906
     38 C28        -1.4531   -8.1681   20.7112 C.ar      1 <0>        -0.1405
     39 C29        -0.4823   -7.9194   19.7584 C.ar      1 <0>        -0.0923
     40 C30        -0.7981   -7.9844   18.4154 C.ar      1 <0>        -0.1560
     41 H1          0.8122    0.3205   -1.2646 H         1 <0>         0.0742
     42 H2          1.5850   -0.9462   -2.2477 H         1 <0>         0.1032
     43 H3          0.1390   -1.3271   -1.2822 H         1 <0>         0.0765
     44 H4          2.1925   -2.1780   -0.1832 H         1 <0>         0.1346
     45 H5          2.9916    0.7674   -0.1274 H         1 <0>         0.0742
     46 H6          3.8709   -0.5619    0.6651 H         1 <0>         0.0765
     47 H7          3.7643   -0.4994   -1.1106 H         1 <0>         0.1032
     48 H8          1.1514   -2.8064    2.0806 H         1 <0>         0.2268
     49 H9          0.8737    1.2891    0.9825 H         1 <0>         0.2639
     50 H10        -1.1160    0.0533    5.2645 H         1 <0>         0.1499
     51 H11        -2.3997   -4.0187    9.3850 H         1 <0>         0.1563
     52 H12        -2.9060   -1.6136    9.3653 H         1 <0>         0.1763
     53 H13         0.5405   -5.7807    9.4055 H         1 <0>         0.1500
     54 H14         0.0151   -7.1393   11.3885 H         1 <0>         0.1598
     55 H15        -3.9309   -7.8099    9.8854 H         1 <0>         0.1546
     56 H16        -2.8701   -9.1066   11.8087 H         1 <0>         0.4216
     57 H17        -1.9554   -9.8465   14.1877 H         1 <0>         0.1319
     58 H18        -3.9864   -7.5919   14.2716 H         1 <0>         0.1152
     59 H19        -4.2635   -9.3617   14.2999 H         1 <0>         0.1215
     60 H20        -0.5593   -8.8310   15.7940 H         1 <0>         0.0980
     61 H21        -1.1675   -7.1904   15.4215 H         1 <0>         0.1026
     62 H22        -4.0764   -8.7766   18.6794 H         1 <0>         0.1537
     63 H23        -3.5003   -8.6690   21.0697 H         1 <0>         0.1286
     64 H24        -1.2026   -8.1214   21.7607 H         1 <0>         0.1255
     65 H25         0.5250   -7.6789   20.0646 H         1 <0>         0.1282
     66 H26        -0.0382   -7.7952   17.6716 H         1 <0>         0.1254
     67 H27        -0.2163    0.9387    3.1977 H         1 <0>         0.4652
@<TRIPOS>BOND
     1    1    2 1
     2    1   41 1
     3    1   42 1
     4    1   43 1
     5    2    3 1
     6    2    4 1
     7    2   44 1
     8    3   45 1
     9    3   46 1
    10    3   47 1
    11    4    8 1
    12    4    5 1
    13    5    6 2
    14    5   48 1
    15    6    7 1
    16    6    9 1
    17    7    8 2
    18    7   67 1
    19    8   49 1
    20    9   13 1
    21    9   10 2
    22   10   11 1
    23   10   50 1
    24   11   17 ar
    25   11   12 ar
    26   12   13 1
    27   12   14 ar
    28   14   15 ar
    29   14   18 1
    30   15   16 ar
    31   15   51 1
    32   16   17 ar
    33   16   52 1
    34   18   19 1
    35   19   24 ar
    36   19   20 ar
    37   20   21 ar
    38   20   53 1
    39   21   22 ar
    40   21   54 1
    41   22   23 ar
    42   22   26 1
    43   23   24 ar
    44   23   55 1
    45   24   25 1
    46   26   27 am
    47   26   56 1
    48   27   28 2
    49   27   29 1
    50   29   34 1
    51   29   30 1
    52   29   57 1
    53   30   31 1
    54   30   58 1
    55   30   59 1
    56   31   32 2
    57   31   33 am
    58   33   34 1
    59   33   35 1
    60   34   60 1
    61   34   61 1
    62   35   40 ar
    63   35   36 ar
    64   36   37 ar
    65   36   62 1
    66   37   38 ar
    67   37   63 1
    68   38   39 ar
    69   38   64 1
    70   39   40 ar
    71   39   65 1
    72   40   66 1
@<TRIPOS>MOLECULE
CHEMBL462023__2
   66    71     0     0     0
SMALL
USER_CHARGES

@<TRIPOS>ATOM
      1 C1          0.6905   -0.8809    1.6158 C.3       1 <0>        -0.1654
      2 C2         -0.7810   -1.2658    1.7818 C.3       1 <0>         0.1250
      3 C3         -1.3904   -0.4659    2.9349 C.3       1 <0>        -0.1655
      4 N1         -1.5062   -0.9683    0.5441 N.pl3     1 <0>        -0.4490
      5 C4         -2.1835   -1.8662   -0.2314 C.2       1 <0>        -0.0134
      6 C5         -2.7041   -1.1654   -1.2758 C.2       1 <0>         0.0606
      7 N2         -2.3420    0.1260   -1.1228 N.2       1 <0>        -0.4691
      8 C6         -1.6325    0.2457   -0.0362 C.2       1 <0>         0.1991
      9 C7         -3.5184   -1.7187   -2.3787 C.2       1 <0>        -0.0093
     10 C8         -4.0554   -1.0686   -3.4431 C.2       1 <0>        -0.1363
     11 C9         -4.8074   -1.7809   -4.3961 C.ar      1 <0>         0.1661
     12 C10        -4.9405   -3.1646   -4.1481 C.ar      1 <0>        -0.2098
     13 S1         -4.0318   -3.4072   -2.6438 S.3       1 <0>         0.1026
     14 C11        -5.6503   -3.9931   -4.9972 C.ar      1 <0>         0.2120
     15 C12        -6.2419   -3.4221   -6.1230 C.ar      1 <0>        -0.2403
     16 C13        -6.0875   -2.0620   -6.3295 C.ar      1 <0>         0.1592
     17 N3         -5.4096   -1.3005   -5.5082 N.ar      1 <0>        -0.4775
     18 O1         -5.7673   -5.3215   -4.7428 O.3       1 <0>        -0.2375
     19 C14        -6.5649   -6.0602   -5.5598 C.ar      1 <0>         0.0284
     20 C15        -7.8957   -6.2663   -5.2283 C.ar      1 <0>        -0.0679
     21 C16        -8.7065   -7.0163   -6.0573 C.ar      1 <0>        -0.1163
     22 C17        -8.1899   -7.5652   -7.2236 C.ar      1 <0>         0.1828
     23 C18        -6.8578   -7.3596   -7.5566 C.ar      1 <0>        -0.1691
     24 C19        -6.0480   -6.6035   -6.7294 C.ar      1 <0>         0.1209
     25 F1         -4.7531   -6.3982   -7.0553 F         1 <0>        -0.1203
     26 N4         -9.0125   -8.3267   -8.0637 N.am      1 <0>        -0.6693
     27 C20       -10.3117   -8.0000   -8.2113 C.2       1 <0>         0.5221
     28 O2        -10.7863   -7.0919   -7.5622 O.2       1 <0>        -0.4980
     29 C21       -11.1748   -8.7629   -9.1830 C.3       1 <0>        -0.1238
     30 C22       -11.3881  -10.2190   -8.7085 C.3       1 <0>        -0.1447
     31 C23       -12.6825  -10.1687   -7.9271 C.2       1 <0>         0.5145
     32 O3        -13.0634  -11.0258   -7.1580 O.2       1 <0>        -0.5016
     33 N5        -13.3489   -9.0359   -8.2088 N.am      1 <0>        -0.5532
     34 C24       -12.6201   -8.2173   -9.1850 C.3       1 <0>         0.1089
     35 C25       -14.5793   -8.6824   -7.6440 C.ar      1 <0>         0.1642
     36 C26       -15.1290   -9.4583   -6.6319 C.ar      1 <0>        -0.1557
     37 C27       -16.3437   -9.1067   -6.0765 C.ar      1 <0>        -0.0917
     38 C28       -17.0124   -7.9834   -6.5272 C.ar      1 <0>        -0.1429
     39 C29       -16.4680   -7.2089   -7.5352 C.ar      1 <0>        -0.0926
     40 C30       -15.2507   -7.5516   -8.0904 C.ar      1 <0>        -0.1540
     41 H1          1.2301   -1.1023    2.5366 H         1 <0>         0.0816
     42 H2          1.1247   -1.4508    0.7943 H         1 <0>         0.0662
     43 H3          0.7650    0.1845    1.3982 H         1 <0>         0.0678
     44 H4         -0.8555   -2.3313    1.9994 H         1 <0>         0.1042
     45 H5         -2.4387   -0.7401    3.0532 H         1 <0>         0.0662
     46 H6         -0.8508   -0.6873    3.8557 H         1 <0>         0.0815
     47 H7         -1.3159    0.5995    2.7173 H         1 <0>         0.0679
     48 H8         -2.2857   -2.9261   -0.0510 H         1 <0>         0.1808
     49 H9         -1.2110    1.1666    0.3388 H         1 <0>         0.2095
     50 H10        -3.9058   -0.0052   -3.5582 H         1 <0>         0.1546
     51 H11        -6.8067   -4.0264   -6.8175 H         1 <0>         0.1463
     52 H12        -6.5430   -1.6127   -7.1996 H         1 <0>         0.1664
     53 H13        -8.2981   -5.8403   -4.3211 H         1 <0>         0.1492
     54 H14        -9.7428   -7.1763   -5.7984 H         1 <0>         0.1551
     55 H15        -6.4555   -7.7866   -8.4633 H         1 <0>         0.1514
     56 H16        -8.6471   -9.0891   -8.5392 H         1 <0>         0.4184
     57 H17       -10.7469   -8.7373  -10.1851 H         1 <0>         0.1399
     58 H18       -11.4842  -10.8886   -9.5632 H         1 <0>         0.1287
     59 H19       -10.5665  -10.5350   -8.0657 H         1 <0>         0.1123
     60 H20       -12.6286   -7.1707   -8.8808 H         1 <0>         0.1077
     61 H21       -13.0633   -8.3269  -10.1748 H         1 <0>         0.0962
     62 H22       -14.6073  -10.3359   -6.2797 H         1 <0>         0.1526
     63 H23       -16.7718   -9.7100   -5.2896 H         1 <0>         0.1269
     64 H24       -17.9621   -7.7106   -6.0913 H         1 <0>         0.1239
     65 H25       -16.9929   -6.3324   -7.8852 H         1 <0>         0.1273
     66 H26       -14.8236   -6.9435   -8.8741 H         1 <0>         0.1251
@<TRIPOS>BOND
     1    1    2 1
     2    1   41 1
     3    1   42 1
     4    1   43 1
     5    2    3 1
     6    2    4 1
     7    2   44 1
     8    3   45 1
     9    3   46 1
    10    3   47 1
    11    4    8 1
    12    4    5 1
    13    5    6 2
    14    5   48 1
    15    6    7 1
    16    6    9 1
    17    7    8 2
    18    8   49 1
    19    9   13 1
    20    9   10 2
    21   10   11 1
    22   10   50 1
    23   11   17 ar
    24   11   12 ar
    25   12   13 1
    26   12   14 ar
    27   14   15 ar
    28   14   18 1
    29   15   16 ar
    30   15   51 1
    31   16   17 ar
    32   16   52 1
    33   18   19 1
    34   19   24 ar
    35   19   20 ar
    36   20   21 ar
    37   20   53 1
    38   21   22 ar
    39   21   54 1
    40   22   23 ar
    41   22   26 1
    42   23   24 ar
    43   23   55 1
    44   24   25 1
    45   26   27 am
    46   26   56 1
    47   27   28 2
    48   27   29 1
    49   29   34 1
    50   29   30 1
    51   29   57 1
    52   30   31 1
    53   30   58 1
    54   30   59 1
    55   31   32 2
    56   31   33 am
    57   33   34 1
    58   33   35 1
    59   34   60 1
    60   34   61 1
    61   35   40 ar
    62   35   36 ar
    63   36   37 ar
    64   36   62 1
    65   37   38 ar
    66   37   63 1
    67   38   39 ar
    68   38   64 1
    69   39   40 ar
    70   39   65 1
    71   40   66 1
@<TRIPOS>MOLECULE
CHEMBL462023__3
   67    72     0     0     0
SMALL
USER_CHARGES

@<TRIPOS>ATOM
      1 C1          1.0773   -0.8591   -1.3979 C.3       1 <0>        -0.1760
      2 C2          1.9660   -1.2176   -0.2052 C.3       1 <0>         0.1176
      3 C3          3.2489   -0.3855   -0.2567 C.3       1 <0>        -0.1762
      4 N1          1.2494   -0.9336    1.0406 N.pl3     1 <0>        -0.3978
      5 C4          0.9389   -1.8362    2.0180 C.2       1 <0>         0.0506
      6 C5          0.2772   -1.1484    2.9885 C.2       1 <0>         0.1227
      7 N2          0.1963    0.1400    2.5940 N.pl3     1 <0>        -0.4709
      8 C6          0.7796    0.2703    1.4359 C.cat     1 <0>         0.3021
      9 C7         -0.2568   -1.7109    4.2471 C.2       1 <0>        -0.1182
     10 C8         -0.9264   -1.0739    5.2421 C.2       1 <0>        -0.0839
     11 C9         -1.3579   -1.7934    6.3723 C.ar      1 <0>         0.1393
     12 C10        -1.0419   -3.1696    6.3684 C.ar      1 <0>        -0.1944
     13 S1         -0.1875   -3.3962    4.8302 S.3       1 <0>         0.1710
     14 C11        -1.4016   -4.0037    7.4106 C.ar      1 <0>         0.2105
     15 C12        -2.0950   -3.4462    8.4837 C.ar      1 <0>        -0.2140
     16 C13        -2.3851   -2.0930    8.4485 C.ar      1 <0>         0.1672
     17 N3         -2.0319   -1.3259    7.4482 N.ar      1 <0>        -0.4685
     18 O1         -1.0895   -5.3247    7.3893 O.3       1 <0>        -0.2332
     19 C14        -1.3798   -6.0671    8.4912 C.ar      1 <0>         0.0140
     20 C15        -0.4225   -6.2458    9.4787 C.ar      1 <0>        -0.0646
     21 C16        -0.7163   -6.9996   10.5980 C.ar      1 <0>        -0.1164
     22 C17        -1.9704   -7.5796   10.7355 C.ar      1 <0>         0.1932
     23 C18        -2.9296   -7.4015    9.7477 C.ar      1 <0>        -0.1691
     24 C19        -2.6371   -6.6417    8.6301 C.ar      1 <0>         0.1239
     25 F1         -3.5715   -6.4631    7.6709 F         1 <0>        -0.1206
     26 N4         -2.2677   -8.3449   11.8707 N.am      1 <0>        -0.6708
     27 C20        -1.7545   -8.0009   13.0685 C.2       1 <0>         0.5244
     28 O2         -0.9781   -7.0728   13.1518 O.2       1 <0>        -0.4978
     29 C21        -2.1453   -8.7696   14.3044 C.3       1 <0>        -0.1243
     30 C22        -1.5913  -10.2125   14.2570 C.3       1 <0>        -0.1448
     31 C23        -0.2691  -10.1264   14.9872 C.2       1 <0>         0.5138
     32 O3          0.6086  -10.9618   14.9355 O.2       1 <0>        -0.4999
     33 N5         -0.2085   -8.9891   15.7012 N.am      1 <0>        -0.5535
     34 C24        -1.4384   -8.2018   15.5552 C.3       1 <0>         0.1092
     35 C25         0.8865   -8.6053   16.4832 C.ar      1 <0>         0.1629
     36 C26         2.0569   -9.3522   16.4559 C.ar      1 <0>        -0.1555
     37 C27         3.1360   -8.9707   17.2290 C.ar      1 <0>        -0.0913
     38 C28         3.0518   -7.8463   18.0295 C.ar      1 <0>        -0.1418
     39 C29         1.8876   -7.1007   18.0593 C.ar      1 <0>        -0.0925
     40 C30         0.8071   -7.4734   17.2839 C.ar      1 <0>        -0.1543
     41 H1          0.8249    0.2005   -1.3574 H         1 <0>         0.0742
     42 H2          1.6105   -1.0704   -2.3248 H         1 <0>         0.1032
     43 H3          0.1634   -1.4520   -1.3612 H         1 <0>         0.0765
     44 H4          2.2184   -2.2772   -0.2457 H         1 <0>         0.1346
     45 H5          2.9965    0.6741   -0.2162 H         1 <0>         0.0742
     46 H6          3.8820   -0.6409    0.5930 H         1 <0>         0.0765
     47 H7          3.7821   -0.5968   -1.1836 H         1 <0>         0.1032
     48 H8          1.1728   -2.8906    2.0201 H         1 <0>         0.2268
     49 H9          0.8705    1.1918    0.8801 H         1 <0>         0.2639
     50 H10        -1.1276   -0.0155    5.1664 H         1 <0>         0.1499
     51 H11        -2.3989   -4.0554    9.3222 H         1 <0>         0.1563
     52 H12        -2.9221   -1.6542    9.2765 H         1 <0>         0.1763
     53 H13         0.5534   -5.7956    9.3721 H         1 <0>         0.1496
     54 H14         0.0297   -7.1382   11.3665 H         1 <0>         0.1580
     55 H15        -3.9051   -7.8527    9.8541 H         1 <0>         0.1545
     56 H16        -2.8428   -9.1222   11.7946 H         1 <0>         0.4206
     57 H17        -3.2274   -8.7707   14.4347 H         1 <0>         0.1410
     58 H18        -2.2665  -10.8974   14.7699 H         1 <0>         0.1300
     59 H19        -1.4374  -10.5283   13.2252 H         1 <0>         0.1117
     60 H20        -1.1971   -7.1492   15.4068 H         1 <0>         0.1070
     61 H21        -2.0712   -8.3241   16.4342 H         1 <0>         0.0972
     62 H22         2.1232  -10.2306   15.8311 H         1 <0>         0.1526
     63 H23         4.0464   -9.5514   17.2085 H         1 <0>         0.1276
     64 H24         3.8970   -7.5501   18.6331 H         1 <0>         0.1247
     65 H25         1.8248   -6.2233   18.6858 H         1 <0>         0.1277
     66 H26        -0.1001   -6.8878   17.3036 H         1 <0>         0.1248
     67 H27        -0.2259    0.8557    3.0943 H         1 <0>         0.4652
@<TRIPOS>BOND
     1    1    2 1
     2    1   41 1
     3    1   42 1
     4    1   43 1
     5    2    3 1
     6    2    4 1
     7    2   44 1
     8    3   45 1
     9    3   46 1
    10    3   47 1
    11    4    8 1
    12    4    5 1
    13    5    6 2
    14    5   48 1
    15    6    7 1
    16    6    9 1
    17    7    8 2
    18    7   67 1
    19    8   49 1
    20    9   13 1
    21    9   10 2
    22   10   11 1
    23   10   50 1
    24   11   17 ar
    25   11   12 ar
    26   12   13 1
    27   12   14 ar
    28   14   15 ar
    29   14   18 1
    30   15   16 ar
    31   15   51 1
    32   16   17 ar
    33   16   52 1
    34   18   19 1
    35   19   24 ar
    36   19   20 ar
    37   20   21 ar
    38   20   53 1
    39   21   22 ar
    40   21   54 1
    41   22   23 ar
    42   22   26 1
    43   23   24 ar
    44   23   55 1
    45   24   25 1
    46   26   27 am
    47   26   56 1
    48   27   28 2
    49   27   29 1
    50   29   34 1
    51   29   30 1
    52   29   57 1
    53   30   31 1
    54   30   58 1
    55   30   59 1
    56   31   32 2
    57   31   33 am
    58   33   34 1
    59   33   35 1
    60   34   60 1
    61   34   61 1
    62   35   40 ar
    63   35   36 ar
    64   36   37 ar
    65   36   62 1
    66   37   38 ar
    67   37   63 1
    68   38   39 ar
    69   38   64 1
    70   39   40 ar
    71   39   65 1
    72   40   66 1
@<TRIPOS>MOLECULE
CHEMBL600603
   61    64     0     0     0
SMALL
USER_CHARGES

@<TRIPOS>ATOM
      1 C1          2.5748   -0.7647    0.0304 C.3       1 <0>         0.0228
      2 O1          1.1623   -0.9808    0.0161 O.3       1 <0>        -0.3013
      3 C2          0.4718   -0.4791   -1.0424 C.ar      1 <0>         0.1140
      4 C3          1.1382    0.1897   -2.0282 C.ar      1 <0>        -0.1541
      5 C4          0.4257    0.7069   -3.1204 C.ar      1 <0>        -0.1051
      6 C5          1.0816    1.4041   -4.1599 C.ar      1 <0>         0.1802
      7 C6          0.3124    1.8850   -5.2048 C.ar      1 <0>        -0.2636
      8 C7         -1.0605    1.6730   -5.2038 C.ar      1 <0>         0.1656
      9 N1         -1.6598    1.0240   -4.2333 N.ar      1 <0>        -0.4918
     10 C8         -0.9778    0.5317   -3.1922 C.ar      1 <0>         0.1714
     11 C9         -1.6353   -0.1607   -2.1619 C.ar      1 <0>        -0.1792
     12 C10        -0.9170   -0.6588   -1.1133 C.ar      1 <0>         0.1516
     13 O2         -1.5572   -1.3330   -0.1223 O.3       1 <0>        -0.2997
     14 C11        -2.9725   -1.4842   -0.2498 C.3       1 <0>         0.0209
     15 O3          2.4235    1.5964   -4.1340 O.3       1 <0>        -0.2374
     16 C12         3.0055    2.1826   -5.2143 C.ar      1 <0>         0.0279
     17 C13         3.5241    1.3979   -6.2335 C.ar      1 <0>        -0.0687
     18 C14         4.1148    1.9922   -7.3312 C.ar      1 <0>        -0.1157
     19 C15         4.1906    3.3763   -7.4153 C.ar      1 <0>         0.1841
     20 C16         3.6718    4.1629   -6.3956 C.ar      1 <0>        -0.1707
     21 C17         3.0753    3.5676   -5.2996 C.ar      1 <0>         0.1203
     22 F1          2.5655    4.3322   -4.3092 F         1 <0>        -0.1210
     23 N2          4.7907    3.9786   -8.5285 N.am      1 <0>        -0.6717
     24 C18         4.6591    3.4218   -9.7487 C.2       1 <0>         0.5197
     25 O4          4.0818    2.3622   -9.8728 O.2       1 <0>        -0.4913
     26 C19         5.2291    4.1155  -10.9590 C.3       1 <0>        -0.1567
     27 C20         4.9443    3.2787  -12.2079 C.3       1 <0>         0.1343
     28 C21         5.6291    3.9182  -13.4174 C.3       1 <0>         0.4297
     29 F2          7.0096    3.9723  -13.1971 F         1 <0>        -0.1815
     30 F3          5.3687    3.1531  -14.5593 F         1 <0>        -0.1701
     31 F4          5.1352    5.2141  -13.6018 F         1 <0>        -0.1802
     32 N3          3.4987    3.2221  -12.4385 N.pl3     1 <0>        -0.7259
     33 C22         2.9460    2.1533  -13.1478 C.ar      1 <0>         0.2107
     34 C23         3.7649    1.1403  -13.6302 C.ar      1 <0>        -0.1811
     35 C24         3.2151    0.0847  -14.3307 C.ar      1 <0>        -0.0749
     36 C25         1.8510    0.0357  -14.5525 C.ar      1 <0>        -0.1682
     37 C26         1.0329    1.0425  -14.0737 C.ar      1 <0>        -0.0760
     38 C27         1.5755    2.0981  -13.3675 C.ar      1 <0>        -0.1810
     39 H1          3.0212   -1.2208   -0.8532 H         1 <0>         0.0580
     40 H2          2.7786    0.3061    0.0288 H         1 <0>         0.0581
     41 H3          3.0021   -1.2145    0.9266 H         1 <0>         0.1051
     42 H4          2.2086    0.3203   -1.9675 H         1 <0>         0.1488
     43 H5          0.7773    2.4232   -6.0176 H         1 <0>         0.1372
     44 H6         -1.6511    2.0531   -6.0243 H         1 <0>         0.1631
     45 H7         -2.7051   -0.3028   -2.2017 H         1 <0>         0.1545
     46 H8         -3.3571   -2.0395    0.6057 H         1 <0>         0.1059
     47 H9         -3.4412   -0.5007   -0.2851 H         1 <0>         0.0608
     48 H10        -3.1986   -2.0276   -1.1672 H         1 <0>         0.0609
     49 H11         3.4662    0.3214   -6.1685 H         1 <0>         0.1486
     50 H12         4.5184    1.3804   -8.1244 H         1 <0>         0.1561
     51 H13         3.7307    5.2394   -6.4604 H         1 <0>         0.1502
     52 H14         5.3010    4.7965   -8.4211 H         1 <0>         0.4182
     53 H15         4.7673    5.0970  -11.0663 H         1 <0>         0.1203
     54 H16         6.3060    4.2320  -10.8375 H         1 <0>         0.1291
     55 H17         5.3291    2.2691  -12.0642 H         1 <0>         0.1327
     56 H18         2.9253    3.9269  -12.0987 H         1 <0>         0.4070
     57 H19         4.8304    1.1783  -13.4580 H         1 <0>         0.1164
     58 H20         3.8512   -0.7033  -14.7061 H         1 <0>         0.1217
     59 H21         1.4237   -0.7906  -15.1013 H         1 <0>         0.1195
     60 H22        -0.0320    1.0012  -14.2487 H         1 <0>         0.1223
     61 H23         0.9354    2.8818  -12.9899 H         1 <0>         0.1195
@<TRIPOS>BOND
     1    1    2 1
     2    1   39 1
     3    1   40 1
     4    1   41 1
     5    2    3 1
     6    3   12 ar
     7    3    4 ar
     8    4    5 ar
     9    4   42 1
    10    5   10 ar
    11    5    6 ar
    12    6    7 ar
    13    6   15 1
    14    7    8 ar
    15    7   43 1
    16    8    9 ar
    17    8   44 1
    18    9   10 ar
    19   10   11 ar
    20   11   12 ar
    21   11   45 1
    22   12   13 1
    23   13   14 1
    24   14   46 1
    25   14   47 1
    26   14   48 1
    27   15   16 1
    28   16   21 ar
    29   16   17 ar
    30   17   18 ar
    31   17   49 1
    32   18   19 ar
    33   18   50 1
    34   19   20 ar
    35   19   23 1
    36   20   21 ar
    37   20   51 1
    38   21   22 1
    39   23   24 am
    40   23   52 1
    41   24   25 2
    42   24   26 1
    43   26   27 1
    44   26   53 1
    45   26   54 1
    46   27   28 1
    47   27   32 1
    48   27   55 1
    49   28   29 1
    50   28   30 1
    51   28   31 1
    52   32   33 1
    53   32   56 1
    54   33   38 ar
    55   33   34 ar
    56   34   35 ar
    57   34   57 1
    58   35   36 ar
    59   35   58 1
    60   36   37 ar
    61   36   59 1
    62   37   38 ar
    63   37   60 1
    64   38   61 1
@<TRIPOS>MOLECULE
CHEMBL600603__1
   61    64     0     0     0
SMALL
USER_CHARGES

@<TRIPOS>ATOM
      1 C1          2.3729   -1.0539   -0.1910 C.3       1 <0>         0.0228
      2 O1          0.9471   -1.0221   -0.1016 O.3       1 <0>        -0.3014
      3 C2          0.2841   -0.3202   -1.0590 C.ar      1 <0>         0.1139
      4 C3          0.9877    0.3062   -2.0468 C.ar      1 <0>        -0.1541
      5 C4          0.3035    1.0299   -3.0348 C.ar      1 <0>        -0.1051
      6 C5          0.9982    1.6906   -4.0729 C.ar      1 <0>         0.1796
      7 C6          0.2551    2.3844   -5.0118 C.ar      1 <0>        -0.2632
      8 C7         -1.1300    2.4122   -4.9102 C.ar      1 <0>         0.1659
      9 N1         -1.7654    1.7949   -3.9418 N.ar      1 <0>        -0.4919
     10 C8         -1.1103    1.1054   -3.0002 C.ar      1 <0>         0.1714
     11 C9         -1.8062    0.4504   -1.9707 C.ar      1 <0>        -0.1791
     12 C10        -1.1160   -0.2518   -1.0251 C.ar      1 <0>         0.1514
     13 O2         -1.7946   -0.8885   -0.0348 O.3       1 <0>        -0.2997
     14 C11        -3.2195   -0.7827   -0.0530 C.3       1 <0>         0.0208
     15 O3          2.3513    1.6465   -4.1466 O.3       1 <0>        -0.2370
     16 C12         2.9511    2.2204   -5.2238 C.ar      1 <0>         0.0255
     17 C13         3.2941    1.4449   -6.3212 C.ar      1 <0>        -0.0663
     18 C14         3.9028    2.0268   -7.4158 C.ar      1 <0>        -0.1407
     19 C15         4.1724    3.3890   -7.4184 C.ar      1 <0>         0.1870
     20 C16         3.8295    4.1665   -6.3203 C.ar      1 <0>        -0.1483
     21 C17         3.2149    3.5845   -5.2271 C.ar      1 <0>         0.1218
     22 F1          2.8761    4.3409   -4.1602 F         1 <0>        -0.1200
     23 N2          4.7907    3.9786   -8.5285 N.am      1 <0>        -0.6718
     24 C18         4.4761    5.2400   -8.8841 C.2       1 <0>         0.5175
     25 O4          3.5930    5.8323   -8.3005 O.2       1 <0>        -0.4899
     26 C19         5.2216    5.9145  -10.0067 C.3       1 <0>        -0.1566
     27 C20         4.6731    7.3289  -10.2057 C.3       1 <0>         0.1339
     28 C21         5.5104    8.0571  -11.2591 C.3       1 <0>         0.4299
     29 F2          5.4479    7.3581  -12.4693 F         1 <0>        -0.1802
     30 F3          5.0089    9.3504  -11.4410 F         1 <0>        -0.1700
     31 F4          6.8401    8.1286  -10.8300 F         1 <0>        -0.1814
     32 N3          3.2807    7.2540  -10.6550 N.pl3     1 <0>        -0.7259
     33 C22         2.4112    8.3204  -10.4152 C.ar      1 <0>         0.2104
     34 C23         2.8665    9.4552   -9.7559 C.ar      1 <0>        -0.1813
     35 C24         2.0042   10.5080   -9.5209 C.ar      1 <0>        -0.0748
     36 C25         0.6887   10.4333   -9.9406 C.ar      1 <0>        -0.1680
     37 C26         0.2321    9.3052  -10.5972 C.ar      1 <0>        -0.0760
     38 C27         1.0906    8.2511  -10.8406 C.ar      1 <0>        -0.1811
     39 H1          2.6676   -1.5024   -1.1397 H         1 <0>         0.0578
     40 H2          2.7634   -0.0380   -0.1326 H         1 <0>         0.0582
     41 H3          2.7754   -1.6457    0.6312 H         1 <0>         0.1050
     42 H4          2.0658    0.2452   -2.0674 H         1 <0>         0.1487
     43 H5          0.7500    2.9024   -5.8199 H         1 <0>         0.1374
     44 H6         -1.6998    2.9571   -5.6483 H         1 <0>         0.1632
     45 H7         -2.8844    0.4982   -1.9302 H         1 <0>         0.1545
     46 H8         -3.6356   -1.3350    0.7896 H         1 <0>         0.1058
     47 H9         -3.5070    0.2660    0.0224 H         1 <0>         0.0609
     48 H10        -3.6029   -1.1985   -0.9848 H         1 <0>         0.0607
     49 H11         3.0854    0.3852   -6.3197 H         1 <0>         0.1500
     50 H12         4.1696    1.4222   -8.2700 H         1 <0>         0.1457
     51 H13         4.0393    5.2259   -6.3218 H         1 <0>         0.1563
     52 H14         5.4452    3.4791   -9.0412 H         1 <0>         0.4192
     53 H15         6.2817    5.9675   -9.7588 H         1 <0>         0.1297
     54 H16         5.0914    5.3418  -10.9250 H         1 <0>         0.1200
     55 H17         4.7218    7.8735   -9.2628 H         1 <0>         0.1323
     56 H18         2.9626    6.4638  -11.1190 H         1 <0>         0.4069
     57 H19         3.8936    9.5139   -9.4273 H         1 <0>         0.1164
     58 H20         2.3576   11.3905   -9.0084 H         1 <0>         0.1218
     59 H21         0.0163   11.2578   -9.7549 H         1 <0>         0.1196
     60 H22        -0.7959    9.2500  -10.9237 H         1 <0>         0.1224
     61 H23         0.7346    7.3721  -11.3574 H         1 <0>         0.1195
@<TRIPOS>BOND
     1    1    2 1
     2    1   39 1
     3    1   40 1
     4    1   41 1
     5    2    3 1
     6    3   12 ar
     7    3    4 ar
     8    4    5 ar
     9    4   42 1
    10    5   10 ar
    11    5    6 ar
    12    6    7 ar
    13    6   15 1
    14    7    8 ar
    15    7   43 1
    16    8    9 ar
    17    8   44 1
    18    9   10 ar
    19   10   11 ar
    20   11   12 ar
    21   11   45 1
    22   12   13 1
    23   13   14 1
    24   14   46 1
    25   14   47 1
    26   14   48 1
    27   15   16 1
    28   16   21 ar
    29   16   17 ar
    30   17   18 ar
    31   17   49 1
    32   18   19 ar
    33   18   50 1
    34   19   20 ar
    35   19   23 1
    36   20   21 ar
    37   20   51 1
    38   21   22 1
    39   23   24 am
    40   23   52 1
    41   24   25 2
    42   24   26 1
    43   26   27 1
    44   26   53 1
    45   26   54 1
    46   27   28 1
    47   27   32 1
    48   27   55 1
    49   28   29 1
    50   28   30 1
    51   28   31 1
    52   32   33 1
    53   32   56 1
    54   33   38 ar
    55   33   34 ar
    56   34   35 ar
    57   34   57 1
    58   35   36 ar
    59   35   58 1
    60   36   37 ar
    61   36   59 1
    62   37   38 ar
    63   37   60 1
    64   38   61 1
@<TRIPOS>MOLECULE
CHEMBL600604
   61    64     0     0     0
SMALL
USER_CHARGES

@<TRIPOS>ATOM
      1 C1          3.2287   -2.3903   -0.9860 C.3       1 <0>         0.0230
      2 O1          1.8201   -2.6306   -0.9768 O.3       1 <0>        -0.3022
      3 C2          1.0791   -1.9949   -1.9233 C.ar      1 <0>         0.1114
      4 C3          1.6945   -1.1770   -2.8264 C.ar      1 <0>        -0.1520
      5 C4          0.9299   -0.5212   -3.8028 C.ar      1 <0>        -0.1069
      6 C5          1.5322    0.3325   -4.7543 C.ar      1 <0>         0.1809
      7 C6          0.7134    0.9444   -5.6872 C.ar      1 <0>        -0.2648
      8 C7         -0.6551    0.7071   -5.6634 C.ar      1 <0>         0.1657
      9 N1         -1.2043   -0.0878   -4.7752 N.ar      1 <0>        -0.4951
     10 C8         -0.4727   -0.7121   -3.8444 C.ar      1 <0>         0.1709
     11 C9         -1.0769   -1.5597   -2.9011 C.ar      1 <0>        -0.1797
     12 C10        -0.3087   -2.1905   -1.9654 C.ar      1 <0>         0.1505
     13 O2         -0.8975   -3.0140   -1.0590 O.3       1 <0>        -0.3002
     14 C11        -2.3145   -3.1737   -1.1520 C.3       1 <0>         0.0212
     15 O3          2.8711    0.5458   -4.7531 O.3       1 <0>        -0.2338
     16 C12         3.3985    1.2998   -5.7549 C.ar      1 <0>        -0.0137
     17 C13         3.9303    0.6854   -6.8786 C.ar      1 <0>        -0.0409
     18 C14         4.4665    1.4501   -7.8962 C.ar      1 <0>        -0.1773
     19 C15         4.4731    2.8352   -7.7951 C.ar      1 <0>         0.2541
     20 C16         3.9405    3.4514   -6.6706 C.ar      1 <0>        -0.2118
     21 C17         3.3991    2.6854   -5.6546 C.ar      1 <0>         0.1479
     22 F1          2.8756    3.2841   -4.5624 F         1 <0>        -0.1231
     23 N2          5.0167    3.6094   -8.8258 N.pl3     1 <0>        -0.7156
     24 C18         5.0236    5.0704   -8.7190 C.3       1 <0>         0.1291
     25 C19         5.0634    5.6841  -10.1200 C.3       1 <0>        -0.1576
     26 C20         3.7917    5.3440  -10.8536 C.2       1 <0>         0.5165
     27 O4          2.9376    4.6765  -10.3095 O.2       1 <0>        -0.4991
     28 N3          3.6035    5.7815  -12.1144 N.am      1 <0>        -0.6713
     29 C21         2.3815    5.5566  -12.7579 C.ar      1 <0>         0.1405
     30 C22         2.3482    5.3254  -14.1269 C.ar      1 <0>        -0.1437
     31 C23         1.1404    5.1038  -14.7591 C.ar      1 <0>        -0.1005
     32 C24        -0.0348    5.1119  -14.0304 C.ar      1 <0>        -0.1311
     33 C25        -0.0051    5.3422  -12.6673 C.ar      1 <0>        -0.1002
     34 C26         1.2000    5.5584  -12.0281 C.ar      1 <0>        -0.1186
     35 C27         6.2561    5.5184   -7.9308 C.3       1 <0>         0.4312
     36 F2          7.4129    5.0937   -8.5932 F         1 <0>        -0.1780
     37 F3          6.2627    6.9136   -7.8288 F         1 <0>        -0.1779
     38 F4          6.2197    4.9573   -6.6498 F         1 <0>        -0.1709
     39 H1          3.6446   -2.7045   -1.9433 H         1 <0>         0.0577
     40 H2          3.4168   -1.3267   -0.8397 H         1 <0>         0.0581
     41 H3          3.6992   -2.9565   -0.1822 H         1 <0>         0.1044
     42 H4          2.7645   -1.0351   -2.7891 H         1 <0>         0.1487
     43 H5          1.1365    1.6040   -6.4303 H         1 <0>         0.1385
     44 H6         -1.2846    1.1903   -6.3960 H         1 <0>         0.1619
     45 H7         -2.1454   -1.7159   -2.9194 H         1 <0>         0.1535
     46 H8         -2.6553   -3.8548   -0.3722 H         1 <0>         0.1052
     47 H9         -2.7984   -2.2052   -1.0256 H         1 <0>         0.0604
     48 H10        -2.5706   -3.5830   -2.1293 H         1 <0>         0.0604
     49 H11         3.9255   -0.3916   -6.9579 H         1 <0>         0.1451
     50 H12         4.8810    0.9707   -8.7707 H         1 <0>         0.1398
     51 H13         3.9453    4.5285   -6.5913 H         1 <0>         0.1402
     52 H14         5.3890    3.1787   -9.6112 H         1 <0>         0.4141
     53 H15         4.1223    5.4013   -8.2029 H         1 <0>         0.1351
     54 H16         5.1581    6.7670  -10.0398 H         1 <0>         0.1298
     55 H17         5.9168    5.2843  -10.6676 H         1 <0>         0.1195
     56 H18         4.3151    6.2524  -12.5757 H         1 <0>         0.4130
     57 H19         3.2657    5.3194  -14.6965 H         1 <0>         0.1254
     58 H20         1.1138    4.9243  -15.8237 H         1 <0>         0.1275
     59 H21        -0.9780    4.9383  -14.5271 H         1 <0>         0.1249
     60 H22        -0.9247    5.3482  -12.1010 H         1 <0>         0.1269
     61 H23         1.2231    5.7331  -10.9626 H         1 <0>         0.1330
@<TRIPOS>BOND
     1    1    2 1
     2    1   39 1
     3    1   40 1
     4    1   41 1
     5    2    3 1
     6    3   12 ar
     7    3    4 ar
     8    4    5 ar
     9    4   42 1
    10    5   10 ar
    11    5    6 ar
    12    6    7 ar
    13    6   15 1
    14    7    8 ar
    15    7   43 1
    16    8    9 ar
    17    8   44 1
    18    9   10 ar
    19   10   11 ar
    20   11   12 ar
    21   11   45 1
    22   12   13 1
    23   13   14 1
    24   14   46 1
    25   14   47 1
    26   14   48 1
    27   15   16 1
    28   16   21 ar
    29   16   17 ar
    30   17   18 ar
    31   17   49 1
    32   18   19 ar
    33   18   50 1
    34   19   20 ar
    35   19   23 1
    36   20   21 ar
    37   20   51 1
    38   21   22 1
    39   23   24 1
    40   23   52 1
    41   24   25 1
    42   24   35 1
    43   24   53 1
    44   25   26 1
    45   25   54 1
    46   25   55 1
    47   26   27 2
    48   26   28 am
    49   28   29 1
    50   28   56 1
    51   29   34 ar
    52   29   30 ar
    53   30   31 ar
    54   30   57 1
    55   31   32 ar
    56   31   58 1
    57   32   33 ar
    58   32   59 1
    59   33   34 ar
    60   33   60 1
    61   34   61 1
    62   35   36 1
    63   35   37 1
    64   35   38 1
@<TRIPOS>MOLECULE
CHEMBL600604__1
   61    64     0     0     0
SMALL
USER_CHARGES

@<TRIPOS>ATOM
      1 C1          2.6534    0.8825    1.0405 C.3       1 <0>         0.0229
      2 O1          1.2282    0.8354    1.1333 O.3       1 <0>        -0.3021
      3 C2          0.5245    1.2920    0.0632 C.ar      1 <0>         0.1115
      4 C3          1.1896    1.7607   -1.0329 C.ar      1 <0>        -0.1520
      5 C4          0.4634    2.2317   -2.1368 C.ar      1 <0>        -0.1069
      6 C5          1.1175    2.7236   -3.2888 C.ar      1 <0>         0.1812
      7 C6          0.3343    3.1710   -4.3384 C.ar      1 <0>        -0.2655
      8 C7         -1.0501    3.1253   -4.2329 C.ar      1 <0>         0.1655
      9 N1         -1.6475    2.6664   -3.1583 N.ar      1 <0>        -0.4951
     10 C8         -0.9524    2.2178   -2.1062 C.ar      1 <0>         0.1710
     11 C9         -1.6081    1.7298   -0.9638 C.ar      1 <0>        -0.1797
     12 C10        -0.8772    1.2716    0.0942 C.ar      1 <0>         0.1506
     13 O2         -1.5165    0.7951    1.1946 O.3       1 <0>        -0.3002
     14 C11        -2.9453    0.7995    1.1675 C.3       1 <0>         0.0212
     15 O3          2.4708    2.7566   -3.3634 O.3       1 <0>        -0.2337
     16 C12         3.0363    3.1496   -4.5364 C.ar      1 <0>        -0.0135
     17 C13         3.4365    2.2008   -5.4651 C.ar      1 <0>        -0.0409
     18 C14         4.0113    2.5988   -6.6564 C.ar      1 <0>        -0.1777
     19 C15         4.1886    3.9497   -6.9253 C.ar      1 <0>         0.2538
     20 C16         3.7878    4.9006   -5.9962 C.ar      1 <0>        -0.2115
     21 C17         3.2076    4.5016   -4.8061 C.ar      1 <0>         0.1479
     22 F1          2.8123    5.4261   -3.9037 F         1 <0>        -0.1231
     23 N2          4.7712    4.3524   -8.1317 N.pl3     1 <0>        -0.7158
     24 C18         4.9581    5.7775   -8.4152 C.3       1 <0>         0.1287
     25 C19         6.1069    5.9532   -9.4103 C.3       1 <0>        -0.1574
     26 C20         7.3960    5.5009   -8.7743 C.2       1 <0>         0.5163
     27 O4          7.3960    5.0794   -7.6370 O.2       1 <0>        -0.4989
     28 N3          8.5490    5.5646   -9.4693 N.am      1 <0>        -0.6713
     29 C21         9.7271    5.0477   -8.9190 C.ar      1 <0>         0.1405
     30 C22        10.9461    5.6562   -9.1877 C.ar      1 <0>        -0.1436
     31 C23        12.1071    5.1435   -8.6431 C.ar      1 <0>        -0.1003
     32 C24        12.0566    4.0254   -7.8309 C.ar      1 <0>        -0.1314
     33 C25        10.8444    3.4169   -7.5618 C.ar      1 <0>        -0.1007
     34 C26         9.6791    3.9283   -8.0984 C.ar      1 <0>        -0.1187
     35 C27         3.6724    6.3513   -9.0140 C.3       1 <0>         0.4315
     36 F2          2.6219    6.1907   -8.1041 F         1 <0>        -0.1712
     37 F3          3.8508    7.7122   -9.2847 F         1 <0>        -0.1778
     38 F4          3.3687    5.6757  -10.2008 F         1 <0>        -0.1778
     39 H1          2.9826    0.2792    0.1945 H         1 <0>         0.0578
     40 H2          2.9743    1.9144    0.8977 H         1 <0>         0.0582
     41 H3          3.0905    0.4899    1.9586 H         1 <0>         0.1044
     42 H4          2.2694    1.7690   -1.0499 H         1 <0>         0.1487
     43 H5          0.7974    3.5545   -5.2355 H         1 <0>         0.1382
     44 H6         -1.6514    3.4775   -5.0580 H         1 <0>         0.1619
     45 H7         -2.6873    1.7124   -0.9247 H         1 <0>         0.1536
     46 H8         -3.3277    0.3946    2.1045 H         1 <0>         0.1052
     47 H9         -3.3031    1.8212    1.0403 H         1 <0>         0.0605
     48 H10        -3.2948    0.1861    0.3371 H         1 <0>         0.0604
     49 H11         3.2990    1.1501   -5.2567 H         1 <0>         0.1451
     50 H12         4.3234    1.8591   -7.3788 H         1 <0>         0.1399
     51 H13         3.9253    5.9513   -6.2047 H         1 <0>         0.1403
     52 H14         5.0514    3.6881   -8.7805 H         1 <0>         0.4139
     53 H15         5.1947    6.3039   -7.4905 H         1 <0>         0.1354
     54 H16         5.9113    5.3551  -10.3003 H         1 <0>         0.1206
     55 H17         6.1884    7.0038   -9.6893 H         1 <0>         0.1289
     56 H18         8.5622    5.9688  -10.3509 H         1 <0>         0.4131
     57 H19        10.9863    6.5293   -9.8222 H         1 <0>         0.1259
     58 H20        13.0555    5.6161   -8.8519 H         1 <0>         0.1277
     59 H21        12.9659    3.6264   -7.4062 H         1 <0>         0.1249
     60 H22        10.8084    2.5435   -6.9275 H         1 <0>         0.1265
     61 H23         8.7321    3.4557   -7.8837 H         1 <0>         0.1330
@<TRIPOS>BOND
     1    1    2 1
     2    1   39 1
     3    1   40 1
     4    1   41 1
     5    2    3 1
     6    3   12 ar
     7    3    4 ar
     8    4    5 ar
     9    4   42 1
    10    5   10 ar
    11    5    6 ar
    12    6    7 ar
    13    6   15 1
    14    7    8 ar
    15    7   43 1
    16    8    9 ar
    17    8   44 1
    18    9   10 ar
    19   10   11 ar
    20   11   12 ar
    21   11   45 1
    22   12   13 1
    23   13   14 1
    24   14   46 1
    25   14   47 1
    26   14   48 1
    27   15   16 1
    28   16   21 ar
    29   16   17 ar
    30   17   18 ar
    31   17   49 1
    32   18   19 ar
    33   18   50 1
    34   19   20 ar
    35   19   23 1
    36   20   21 ar
    37   20   51 1
    38   21   22 1
    39   23   24 1
    40   23   52 1
    41   24   25 1
    42   24   35 1
    43   24   53 1
    44   25   26 1
    45   25   54 1
    46   25   55 1
    47   26   27 2
    48   26   28 am
    49   28   29 1
    50   28   56 1
    51   29   34 ar
    52   29   30 ar
    53   30   31 ar
    54   30   57 1
    55   31   32 ar
    56   31   58 1
    57   32   33 ar
    58   32   59 1
    59   33   34 ar
    60   33   60 1
    61   34   61 1
    62   35   36 1
    63   35   37 1
    64   35   38 1
@<TRIPOS>MOLECULE
CHEMBL515858
   69    73     0     0     0
SMALL
USER_CHARGES

@<TRIPOS>ATOM
      1 C1         -1.5524   -1.6888    6.7726 C.3       1 <0>         0.0234
      2 N1         -1.0774   -1.7933    5.3864 N.3       1 <0>        -0.5446
      3 C2         -2.1920   -1.6679    4.4369 C.3       1 <0>         0.0553
      4 C3         -1.6469   -1.7021    3.0072 C.3       1 <0>         0.0545
      5 N2         -0.9163   -2.9593    2.7942 N.3       1 <0>        -0.5379
      6 C4          0.1983   -3.0846    3.7437 C.3       1 <0>         0.0573
      7 C5         -0.3467   -3.0504    5.1735 C.3       1 <0>         0.0555
      8 C6         -0.4412   -3.0637    1.4080 C.3       1 <0>         0.1016
      9 C7          0.0821   -4.4550    1.1599 C.ar      1 <0>        -0.1908
     10 C8          1.4175   -4.7587    1.3971 C.ar      1 <0>         0.2687
     11 C9          1.8550   -6.0603    1.1524 C.ar      1 <0>        -0.2395
     12 C10         0.9568   -6.9965    0.6870 C.ar      1 <0>         0.1854
     13 N3         -0.3059   -6.6767    0.4715 N.ar      1 <0>        -0.5199
     14 C11        -0.7640   -5.4536    0.6964 C.ar      1 <0>         0.4897
     15 N4         -2.1036   -5.1662    0.4605 N.pl3     1 <0>        -0.8113
     16 O1          2.2750   -3.8117    1.8552 O.3       1 <0>        -0.2021
     17 C12         3.5437   -4.1939    2.1622 C.ar      1 <0>        -0.0218
     18 C13         3.9375   -4.2881    3.4886 C.ar      1 <0>        -0.0484
     19 C14         5.2256   -4.6756    3.8015 C.ar      1 <0>        -0.1453
     20 C15         6.1277   -4.9718    2.7880 C.ar      1 <0>         0.2126
     21 C16         5.7344   -4.8783    1.4596 C.ar      1 <0>        -0.1692
     22 C17         4.4431   -4.4953    1.1472 C.ar      1 <0>         0.1191
     23 F1          4.0578   -4.4088   -0.1448 F         1 <0>        -0.1226
     24 N5          7.4337   -5.3643    3.1056 N.am      1 <0>        -0.6587
     25 C18         8.4334   -5.1529    2.2268 C.2       1 <0>         0.5902
     26 O2          8.1828   -4.7568    1.1040 O.2       1 <0>        -0.5185
     27 C19         9.8271   -5.4009    2.6249 C.2       1 <0>        -0.2960
     28 C20        10.8801   -5.0216    1.7942 C.2       1 <0>         0.0867
     29 C21        12.1890   -5.2726    2.2052 C.2       1 <0>        -0.2355
     30 C22        12.4247   -5.8775    3.3975 C.2       1 <0>         0.1796
     31 N6         11.4052   -6.2491    4.2106 N.am      1 <0>        -0.4405
     32 C23        10.1235   -6.0251    3.8638 C.2       1 <0>         0.5382
     33 O3          9.2205   -6.3616    4.6102 O.2       1 <0>        -0.5372
     34 C24        11.6899   -6.8712    5.4328 C.ar      1 <0>         0.0716
     35 C25        11.3658   -8.2079    5.6248 C.ar      1 <0>        -0.0555
     36 C26        11.6478   -8.8195    6.8303 C.ar      1 <0>        -0.1418
     37 C27        12.2530   -8.1006    7.8477 C.ar      1 <0>         0.1246
     38 C28        12.5767   -6.7674    7.6584 C.ar      1 <0>        -0.1415
     39 C29        12.3020   -6.1538    6.4522 C.ar      1 <0>        -0.0716
     40 F2         12.5277   -8.7007    9.0266 F         1 <0>        -0.1273
     41 H1         -0.7003   -1.7172    7.4518 H         1 <0>         0.0720
     42 H2         -2.0897   -0.7494    6.9027 H         1 <0>         0.0730
     43 H3         -2.2197   -2.5223    6.9918 H         1 <0>         0.0283
     44 H4         -2.8872   -2.4950    4.5810 H         1 <0>         0.0434
     45 H5         -2.7096   -0.7237    4.6063 H         1 <0>         0.0863
     46 H6         -2.4747   -1.6384    2.3008 H         1 <0>         0.0844
     47 H7         -0.9727   -0.8593    2.8548 H         1 <0>         0.0538
     48 H8          0.7159   -4.0288    3.5743 H         1 <0>         0.0694
     49 H9          0.8935   -2.2575    3.5997 H         1 <0>         0.0564
     50 H10         0.4810   -3.1141    5.8798 H         1 <0>         0.0826
     51 H11        -1.0209   -3.8932    5.3259 H         1 <0>         0.0410
     52 H12        -1.2655   -2.8584    0.7250 H         1 <0>         0.0930
     53 H13         0.3570   -2.3403    1.2420 H         1 <0>         0.0762
     54 H14         2.8860   -6.3314    1.3253 H         1 <0>         0.1788
     55 H15         1.2906   -8.0057    0.4957 H         1 <0>         0.2126
     56 H16        -2.4430   -4.2716    0.6198 H         1 <0>         0.4400
     57 H17         3.2366   -4.0579    4.2773 H         1 <0>         0.1525
     58 H18         5.5316   -4.7480    4.8347 H         1 <0>         0.1515
     59 H19         6.4355   -5.1085    0.6710 H         1 <0>         0.1837
     60 H20         7.6189   -5.7883    3.9581 H         1 <0>         0.4330
     61 H21        10.6854   -4.5411    0.8468 H         1 <0>         0.1581
     62 H22        13.0167   -4.9855    1.5736 H         1 <0>         0.1670
     63 H23        13.4430   -6.0665    3.7039 H         1 <0>         0.1780
     64 H24        10.8932   -8.7686    4.8319 H         1 <0>         0.1393
     65 H25        11.3959   -9.8589    6.9800 H         1 <0>         0.1495
     66 H26        13.0483   -6.2085    8.4531 H         1 <0>         0.1506
     67 H27        12.5589   -5.1154    6.3033 H         1 <0>         0.1427
     68 H28        -0.9156   -7.3561    0.1435 H         1 <0>         0.4445
     69 H29        -2.6988   -5.8602    0.1367 H         1 <0>         0.4221
@<TRIPOS>BOND
     1    1    2 1
     2    1   41 1
     3    1   42 1
     4    1   43 1
     5    2    7 1
     6    2    3 1
     7    3    4 1
     8    3   44 1
     9    3   45 1
    10    4    5 1
    11    4   46 1
    12    4   47 1
    13    5    6 1
    14    5    8 1
    15    6    7 1
    16    6   48 1
    17    6   49 1
    18    7   50 1
    19    7   51 1
    20    8   52 1
    21    8   53 1
    22    8    9 1
    23    9   14 ar
    24    9   10 ar
    25   10   16 1
    26   10   11 ar
    27   11   54 1
    28   11   12 ar
    29   12   55 1
    30   12   13 ar
    31   13   68 1
    32   13   14 ar
    33   14   15 1
    34   15   56 1
    35   15   69 1
    36   16   17 1
    37   17   22 ar
    38   17   18 ar
    39   18   19 ar
    40   18   57 1
    41   19   20 ar
    42   19   58 1
    43   20   21 ar
    44   20   24 1
    45   21   22 ar
    46   21   59 1
    47   22   23 1
    48   24   25 am
    49   24   60 1
    50   25   26 2
    51   25   27 1
    52   27   32 1
    53   27   28 2
    54   28   29 1
    55   28   61 1
    56   29   30 2
    57   29   62 1
    58   30   31 1
    59   30   63 1
    60   31   32 am
    61   31   34 1
    62   32   33 2
    63   34   39 ar
    64   34   35 ar
    65   35   36 ar
    66   35   64 1
    67   36   37 ar
    68   36   65 1
    69   37   38 ar
    70   37   40 1
    71   38   39 ar
    72   38   66 1
    73   39   67 1
@<TRIPOS>MOLECULE
CHEMBL402550
   52    56     0     0     0
SMALL
USER_CHARGES

@<TRIPOS>ATOM
      1 C1         10.8469    0.9825   -3.5870 C.ar      1 <0>        -0.1129
      2 C2         10.7653   -0.3966   -3.5377 C.ar      1 <0>        -0.1181
      3 C3          9.7515   -1.0038   -2.8204 C.ar      1 <0>        -0.1014
      4 C4          8.8196   -0.2319   -2.1521 C.ar      1 <0>        -0.0803
      5 C5          8.9017    1.1472   -2.2007 C.ar      1 <0>        -0.1014
      6 C6          9.9147    1.7544   -2.9191 C.ar      1 <0>        -0.1181
      7 C7          7.7138   -0.8938   -1.3710 C.3       1 <0>        -0.0931
      8 C8          8.1684   -1.1231    0.0473 C.2       1 <0>         0.4823
      9 O1          9.2804   -0.7827    0.3901 O.2       1 <0>        -0.3883
     10 N1          7.3388   -1.7067    0.9349 N.am      1 <0>        -0.6408
     11 C9          7.7453   -1.9117    2.2034 C.2       1 <0>         0.5054
     12 S1          9.3156   -1.4310    2.6873 S.2       1 <0>        -0.4713
     13 N2          6.9157   -2.4953    3.0909 N.pl3     1 <0>        -0.6251
     14 C10         7.3760   -2.8147    4.3745 C.ar      1 <0>         0.1659
     15 C11         6.5607   -2.6001    5.4780 C.ar      1 <0>        -0.1175
     16 C12         7.0141   -2.9150    6.7439 C.ar      1 <0>        -0.0787
     17 C13         8.2838   -3.4463    6.9144 C.ar      1 <0>         0.0435
     18 C14         9.1008   -3.6617    5.8114 C.ar      1 <0>         0.1099
     19 C15         8.6453   -3.3515    4.5433 C.ar      1 <0>        -0.1025
     20 F1         10.3380   -4.1784    5.9775 F         1 <0>        -0.1181
     21 O2          8.7294   -3.7560    8.1614 O.3       1 <0>        -0.2370
     22 C16         9.4949   -2.8416    8.8101 C.ar      1 <0>         0.2093
     23 C17         9.8938   -1.6636    8.1820 C.ar      1 <0>        -0.2239
     24 C18        10.6739   -0.7684    8.8951 C.ar      1 <0>         0.1613
     25 N3         11.0461   -0.9912   10.1298 N.ar      1 <0>        -0.4682
     26 C19        10.6990   -2.1106   10.8065 C.ar      1 <0>         0.1500
     27 C20         9.8982   -3.0477   10.1172 C.ar      1 <0>        -0.1974
     28 S2          9.6515   -4.3404   11.3070 S.3       1 <0>         0.1368
     29 C21        10.5803   -3.6297   12.6550 C.2       1 <0>        -0.0507
     30 C22        11.0350   -2.4616   12.1265 C.2       1 <0>        -0.0804
     31 C23        10.8086   -4.1780   14.0023 C.2       1 <0>         0.1703
     32 N4         11.4900   -3.6616   15.0179 N.2       1 <0>        -0.4788
     33 C24        11.5909   -4.2952   16.1616 C.2       1 <0>         0.0283
     34 C25        10.9900   -5.5051   16.3220 C.2       1 <0>        -0.1886
     35 S3         10.2360   -5.7152   14.7139 S.3       1 <0>         0.0437
     36 H1         11.6416    1.4568   -4.1437 H         1 <0>         0.1233
     37 H2         11.4934   -0.9996   -4.0598 H         1 <0>         0.1239
     38 H3          9.6874   -2.0812   -2.7824 H         1 <0>         0.1202
     39 H4          8.1734    1.7502   -1.6789 H         1 <0>         0.1202
     40 H5          9.9786    2.8318   -2.9574 H         1 <0>         0.1239
     41 H6          6.8337   -0.2507   -1.3710 H         1 <0>         0.1094
     42 H7          7.4653   -1.8498   -1.8320 H         1 <0>         0.1093
     43 H8          6.4491   -1.9790    0.6607 H         1 <0>         0.4127
     44 H9          5.9998   -2.6940    2.8407 H         1 <0>         0.4133
     45 H10         5.5718   -2.1864    5.3462 H         1 <0>         0.1456
     46 H11         6.3798   -2.7471    7.6017 H         1 <0>         0.1523
     47 H12         9.2782   -3.5224    3.6851 H         1 <0>         0.1639
     48 H13         9.6021   -1.4537    7.1635 H         1 <0>         0.1532
     49 H14        10.9868    0.1468    8.4146 H         1 <0>         0.1712
     50 H15        11.6420   -1.7979   12.7244 H         1 <0>         0.1612
     51 H16        12.1504   -3.8572   16.9750 H         1 <0>         0.1767
     52 H17        10.9707   -6.1567   17.1830 H         1 <0>         0.2058
@<TRIPOS>BOND
     1    1    6 ar
     2    1    2 ar
     3    1   36 1
     4    2    3 ar
     5    2   37 1
     6    3    4 ar
     7    3   38 1
     8    4    5 ar
     9    4    7 1
    10    5    6 ar
    11    5   39 1
    12    6   40 1
    13    7    8 1
    14    7   41 1
    15    7   42 1
    16    8    9 2
    17    8   10 am
    18   10   11 1
    19   10   43 1
    20   11   12 2
    21   11   13 1
    22   13   14 1
    23   13   44 1
    24   14   19 ar
    25   14   15 ar
    26   15   16 ar
    27   15   45 1
    28   16   17 ar
    29   16   46 1
    30   17   18 ar
    31   17   21 1
    32   18   19 ar
    33   18   20 1
    34   19   47 1
    35   21   22 1
    36   22   27 ar
    37   22   23 ar
    38   23   24 ar
    39   23   48 1
    40   24   25 ar
    41   24   49 1
    42   25   26 ar
    43   26   30 1
    44   26   27 ar
    45   27   28 1
    46   28   29 1
    47   29   30 2
    48   29   31 1
    49   30   50 1
    50   31   35 1
    51   31   32 2
    52   32   33 1
    53   33   34 2
    54   33   51 1
    55   34   35 1
    56   34   52 1
@<TRIPOS>MOLECULE
CHEMBL409933
   63    67     0     0     0
SMALL
USER_CHARGES

@<TRIPOS>ATOM
      1 C1          0.9167   -0.9762    2.3450 C.3       1 <0>        -0.1601
      2 C2         -0.0653    0.1969    2.3382 C.3       1 <0>         0.1995
      3 H1          0.0933    0.7984    1.4431 H         1 <0>         0.1026
      4 C3          0.1599    1.0478    3.5615 C.ar      1 <0>        -0.0952
      5 C4         -0.3609    0.6568    4.7808 C.ar      1 <0>        -0.1167
      6 C5         -0.1543    1.4373    5.9029 C.ar      1 <0>        -0.1148
      7 C6          0.5736    2.6084    5.8057 C.ar      1 <0>        -0.1163
      8 C7          1.0952    2.9989    4.5866 C.ar      1 <0>        -0.1133
      9 C8          0.8922    2.2163    3.4653 C.ar      1 <0>        -0.1050
     10 N1         -1.4379   -0.3151    2.3455 N.am      1 <0>        -0.7328
     11 C9         -2.0365   -0.6551    1.1869 C.2       1 <0>         0.7161
     12 O1         -1.4736   -0.4502    0.1287 O.2       1 <0>        -0.5600
     13 N2         -3.2591   -1.2223    1.2010 N.am      1 <0>        -0.5695
     14 C10        -4.0035   -1.3978    2.4599 C.3       1 <0>         0.0635
     15 C11        -4.6496   -2.7902    2.4259 C.3       1 <0>         0.0495
     16 O2         -5.5001   -2.8759    1.2801 O.3       1 <0>        -0.3044
     17 C12        -4.9873   -2.4954    0.0803 C.ar      1 <0>         0.1058
     18 C13        -3.8720   -1.6625    0.0124 C.ar      1 <0>         0.1073
     19 C14        -3.3632   -1.2728   -1.2155 C.ar      1 <0>        -0.1048
     20 C15        -3.9648   -1.7085   -2.3818 C.ar      1 <0>        -0.1182
     21 C16        -5.0768   -2.5354   -2.3215 C.ar      1 <0>         0.0857
     22 C17        -5.5844   -2.9360   -1.0905 C.ar      1 <0>        -0.1372
     23 O3         -5.6663   -2.9636   -3.4692 O.3       1 <0>        -0.2420
     24 C18        -6.8379   -2.3881   -3.8360 C.ar      1 <0>         0.1840
     25 C19        -7.4676   -1.4671   -3.0168 C.ar      1 <0>        -0.2655
     26 C20        -8.6666   -0.8938   -3.4195 C.ar      1 <0>         0.1645
     27 N3         -9.2299   -1.2002   -4.5648 N.ar      1 <0>        -0.4950
     28 C21        -8.6766   -2.0821   -5.4053 C.ar      1 <0>         0.1714
     29 C22        -7.4504   -2.7057   -5.0687 C.ar      1 <0>        -0.1075
     30 C23        -6.8698   -3.6264   -5.9545 C.ar      1 <0>        -0.1530
     31 C24        -7.4899   -3.9094   -7.1367 C.ar      1 <0>         0.1121
     32 C25        -8.7016   -3.2893   -7.4754 C.ar      1 <0>         0.1508
     33 C26        -9.2934   -2.3985   -6.6275 C.ar      1 <0>        -0.1800
     34 O4         -9.2997   -3.5877   -8.6585 O.3       1 <0>        -0.3002
     35 C27       -10.5319   -2.9245   -8.9480 C.3       1 <0>         0.0211
     36 O5         -6.9272   -4.8012   -7.9953 O.3       1 <0>        -0.3022
     37 C28        -5.6928   -5.3985   -7.5933 C.3       1 <0>         0.0229
     38 H2          1.9380   -0.5952    2.3395 H         1 <0>         0.0725
     39 H3          0.7581   -1.5777    3.2401 H         1 <0>         0.0591
     40 H4          0.7538   -1.5916    1.4602 H         1 <0>         0.0662
     41 H5         -0.9296   -0.2582    4.8567 H         1 <0>         0.1171
     42 H6         -0.5618    1.1322    6.8554 H         1 <0>         0.1248
     43 H7          0.7345    3.2185    6.6823 H         1 <0>         0.1247
     44 H8          1.6636    3.9141    4.5106 H         1 <0>         0.1264
     45 H9          1.3029    2.5195    2.5136 H         1 <0>         0.1266
     46 H10        -1.9159   -0.4095    3.1843 H         1 <0>         0.3963
     47 H11        -3.3206   -1.3275    3.3065 H         1 <0>         0.1007
     48 H12        -4.7762   -0.6334    2.5425 H         1 <0>         0.0952
     49 H13        -3.8726   -3.5520    2.3618 H         1 <0>         0.0746
     50 H14        -5.2388   -2.9418    3.3303 H         1 <0>         0.1285
     51 H15        -2.4975   -0.6288   -1.2620 H         1 <0>         0.1855
     52 H16        -3.5690   -1.4047   -3.3396 H         1 <0>         0.1399
     53 H17        -6.4502   -3.5800   -1.0459 H         1 <0>         0.1445
     54 H18        -7.0284   -1.1957   -2.0682 H         1 <0>         0.1423
     55 H19        -9.1491   -0.1764   -2.7723 H         1 <0>         0.1620
     56 H20        -5.9369   -4.1083   -5.7020 H         1 <0>         0.1491
     57 H21       -10.2267   -1.9286   -6.9008 H         1 <0>         0.1536
     58 H22       -10.9013   -3.2521   -9.9197 H         1 <0>         0.1053
     59 H23       -11.2652   -3.1685   -8.1793 H         1 <0>         0.0605
     60 H24       -10.3690   -1.8468   -8.9657 H         1 <0>         0.0605
     61 H25        -5.3540   -6.0879   -8.3666 H         1 <0>         0.1044
     62 H26        -4.9436   -4.6205   -7.4465 H         1 <0>         0.0582
     63 H27        -5.8393   -5.9426   -6.6603 H         1 <0>         0.0581
@<TRIPOS>BOND
     1    1    2 1
     2    1   38 1
     3    1   39 1
     4    1   40 1
     5    2    3 1
     6    2    4 1
     7    2   10 1
     8    4    9 ar
     9    4    5 ar
    10    5    6 ar
    11    5   41 1
    12    6    7 ar
    13    6   42 1
    14    7    8 ar
    15    7   43 1
    16    8    9 ar
    17    8   44 1
    18    9   45 1
    19   10   11 am
    20   10   46 1
    21   11   12 2
    22   11   13 am
    23   13   18 1
    24   13   14 1
    25   14   15 1
    26   14   47 1
    27   14   48 1
    28   15   16 1
    29   15   49 1
    30   15   50 1
    31   16   17 1
    32   17   22 ar
    33   17   18 ar
    34   18   19 ar
    35   19   20 ar
    36   19   51 1
    37   20   21 ar
    38   20   52 1
    39   21   22 ar
    40   21   23 1
    41   22   53 1
    42   23   24 1
    43   24   29 ar
    44   24   25 ar
    45   25   26 ar
    46   25   54 1
    47   26   27 ar
    48   26   55 1
    49   27   28 ar
    50   28   33 ar
    51   28   29 ar
    52   29   30 ar
    53   30   31 ar
    54   30   56 1
    55   31   32 ar
    56   31   36 1
    57   32   33 ar
    58   32   34 1
    59   33   57 1
    60   34   35 1
    61   35   58 1
    62   35   59 1
    63   35   60 1
    64   36   37 1
    65   37   61 1
    66   37   62 1
    67   37   63 1
@<TRIPOS>MOLECULE
CHEMBL448993
   64    69     0     0     0
SMALL
USER_CHARGES

@<TRIPOS>ATOM
      1 C1         -2.2831    1.0393   -2.1531 C.3       1 <0>        -0.2011
      2 C2         -1.9662   -0.4074   -1.8739 C.2       1 <0>         0.3939
      3 O1         -2.8648   -1.1997   -1.6873 O.2       1 <0>        -0.4522
      4 C3         -0.5658   -0.8584   -1.8277 C.ar      1 <0>        -0.1673
      5 C4          0.4732    0.0555   -2.0371 C.ar      1 <0>        -0.0613
      6 C5          1.7859   -0.3672   -1.9943 C.ar      1 <0>        -0.1259
      7 C6          2.0841   -1.6929   -1.7450 C.ar      1 <0>        -0.0600
      8 C7          1.0579   -2.6162   -1.5337 C.ar      1 <0>        -0.0276
      9 C8         -0.2698   -2.1979   -1.5692 C.ar      1 <0>        -0.0421
     10 C9          1.3809   -4.0347   -1.2670 C.2       1 <0>        -0.0621
     11 C10         2.6010   -4.6235   -1.1839 C.2       1 <0>        -0.1369
     12 C11         2.7003   -6.0025   -0.9193 C.ar      1 <0>         0.1588
     13 C12         1.4700   -6.6760   -0.7576 C.ar      1 <0>        -0.2074
     14 S1          0.2627   -5.3930   -0.9675 S.3       1 <0>         0.1111
     15 C13         1.4095   -8.0323   -0.4929 C.ar      1 <0>         0.2125
     16 C14         2.6106   -8.7308   -0.3876 C.ar      1 <0>        -0.2363
     17 C15         3.7952   -8.0326   -0.5529 C.ar      1 <0>         0.1607
     18 N1          3.8231   -6.7483   -0.8028 N.ar      1 <0>        -0.4773
     19 O2          0.2173   -8.6631   -0.3400 O.3       1 <0>        -0.2347
     20 C16         0.2247  -10.0148   -0.1901 C.ar      1 <0>         0.0234
     21 C17        -0.1996  -10.8299   -1.2288 C.ar      1 <0>        -0.0610
     22 C18        -0.1925  -12.2027   -1.0775 C.ar      1 <0>        -0.1413
     23 C19         0.2401  -12.7681    0.1147 C.ar      1 <0>         0.1977
     24 C20         0.6655  -11.9533    1.1551 C.ar      1 <0>        -0.1608
     25 C21         0.6627  -10.5791    1.0015 C.ar      1 <0>         0.1159
     26 F1          1.0813   -9.7854    2.0114 F         1 <0>        -0.1189
     27 N2          0.2467  -14.1608    0.2678 N.am      1 <0>        -0.6682
     28 C22         0.1375  -14.7042    1.4963 C.2       1 <0>         0.7294
     29 O3          0.1757  -13.9928    2.4812 O.2       1 <0>        -0.5011
     30 N3         -0.0141  -16.0365    1.6329 N.am      1 <0>        -0.5855
     31 C23         0.0434  -17.0171    0.5386 C.3       1 <0>         0.0677
     32 C24        -0.1903  -18.3686    1.2413 C.3       1 <0>         0.0885
     33 N4         -0.3545  -18.0059    2.6569 N.am      1 <0>        -0.5625
     34 C25        -0.2353  -16.6781    2.7877 C.2       1 <0>         0.7076
     35 O4         -0.3237  -16.1068    3.8569 O.2       1 <0>        -0.5029
     36 C26        -0.5918  -18.9055    3.7022 C.ar      1 <0>         0.1798
     37 C27        -0.9293  -18.4331    4.9637 C.ar      1 <0>        -0.1498
     38 C28        -1.1628  -19.3236    5.9933 C.ar      1 <0>        -0.0887
     39 C29        -1.0603  -20.6843    5.7691 C.ar      1 <0>        -0.1407
     40 C30        -0.7244  -21.1578    4.5141 C.ar      1 <0>        -0.0916
     41 C31        -0.4957  -20.2727    3.4788 C.ar      1 <0>        -0.1545
     42 H1         -2.3279    1.5894   -1.2131 H         1 <0>         0.1004
     43 H2         -1.5056    1.4657   -2.7870 H         1 <0>         0.0878
     44 H3         -3.2449    1.1090   -2.6611 H         1 <0>         0.0907
     45 H4          0.2471    1.0933   -2.2328 H         1 <0>         0.1401
     46 H5          2.5843    0.3418   -2.1569 H         1 <0>         0.1393
     47 H6          3.1141   -2.0163   -1.7138 H         1 <0>         0.1364
     48 H7         -1.0669   -2.9073   -1.4023 H         1 <0>         0.1376
     49 H8          3.4955   -4.0341   -1.3211 H         1 <0>         0.1513
     50 H9          2.6176   -9.7910   -0.1817 H         1 <0>         0.1471
     51 H10         4.7300   -8.5675   -0.4723 H         1 <0>         0.1678
     52 H11        -0.5362  -10.3909   -2.1564 H         1 <0>         0.1524
     53 H12        -0.5237  -12.8367   -1.8866 H         1 <0>         0.1474
     54 H13         1.0020  -12.3926    2.0825 H         1 <0>         0.1786
     55 H14         0.3299  -14.7339   -0.5104 H         1 <0>         0.4161
     56 H15        -0.7438  -16.8238   -0.1902 H         1 <0>         0.1058
     57 H16         1.0224  -16.9991    0.0597 H         1 <0>         0.1059
     58 H17        -1.0934  -18.8462    0.8615 H         1 <0>         0.1025
     59 H18         0.6727  -19.0216    1.1113 H         1 <0>         0.1016
     60 H19        -1.0088  -17.3705    5.1396 H         1 <0>         0.1540
     61 H20        -1.4253  -18.9568    6.9746 H         1 <0>         0.1292
     62 H21        -1.2427  -21.3785    6.5760 H         1 <0>         0.1256
     63 H22        -0.6448  -22.2211    4.3423 H         1 <0>         0.1292
     64 H23        -0.2378  -20.6434    2.4977 H         1 <0>         0.1261
@<TRIPOS>BOND
     1    1    2 1
     2    1   42 1
     3    1   43 1
     4    1   44 1
     5    2    3 2
     6    2    4 1
     7    4    9 ar
     8    4    5 ar
     9    5    6 ar
    10    5   45 1
    11    6    7 ar
    12    6   46 1
    13    7    8 ar
    14    7   47 1
    15    8    9 ar
    16    8   10 1
    17    9   48 1
    18   10   14 1
    19   10   11 2
    20   11   12 1
    21   11   49 1
    22   12   18 ar
    23   12   13 ar
    24   13   14 1
    25   13   15 ar
    26   15   16 ar
    27   15   19 1
    28   16   17 ar
    29   16   50 1
    30   17   18 ar
    31   17   51 1
    32   19   20 1
    33   20   25 ar
    34   20   21 ar
    35   21   22 ar
    36   21   52 1
    37   22   23 ar
    38   22   53 1
    39   23   24 ar
    40   23   27 1
    41   24   25 ar
    42   24   54 1
    43   25   26 1
    44   27   28 am
    45   27   55 1
    46   28   29 2
    47   28   30 am
    48   30   34 am
    49   30   31 1
    50   31   32 1
    51   31   56 1
    52   31   57 1
    53   32   33 1
    54   32   58 1
    55   32   59 1
    56   33   34 am
    57   33   36 1
    58   34   35 2
    59   36   41 ar
    60   36   37 ar
    61   37   38 ar
    62   37   60 1
    63   38   39 ar
    64   38   61 1
    65   39   40 ar
    66   39   62 1
    67   40   41 ar
    68   40   63 1
    69   41   64 1
@<TRIPOS>MOLECULE
CHEMBL502621
   72    77     0     0     0
SMALL
USER_CHARGES

@<TRIPOS>ATOM
      1 C1         -0.3671    1.4218    0.5889 C.3       1 <0>        -0.0488
      2 N1         -0.2602   -0.0353    0.4359 N.4       1 <0>        -0.3786
      3 C2          0.4641   -0.5964    1.5841 C.3       1 <0>        -0.0521
      4 C3         -1.6059   -0.6209    0.3721 C.3       1 <0>         0.0018
      5 H1         -2.1632   -0.4147    1.2858 H         1 <0>         0.1589
      6 C4         -2.3754   -0.1120   -0.8755 C.3       1 <0>        -0.1395
      7 C5         -3.3719   -1.2561   -1.1574 C.3       1 <0>         0.0846
      8 N2         -2.8284   -2.4718   -0.5346 N.am      1 <0>        -0.6172
      9 C6         -1.5363   -2.1436    0.0959 C.3       1 <0>         0.1005
     10 C7         -3.4146   -3.6854   -0.5378 C.2       1 <0>         0.6324
     11 O1         -2.8715   -4.6246    0.0121 O.2       1 <0>        -0.4955
     12 C8         -4.7118   -3.8743   -1.2066 C.2       1 <0>        -0.1927
     13 C9         -5.4550   -5.0088   -1.3112 C.2       1 <0>        -0.0335
     14 C10        -6.6813   -4.9838   -1.9987 C.ar      1 <0>         0.1326
     15 C11        -7.0450   -3.7313   -2.5404 C.ar      1 <0>        -0.1899
     16 S1         -5.7024   -2.6695   -2.0740 S.3       1 <0>         0.1151
     17 C12        -8.2265   -3.5542   -3.2438 C.ar      1 <0>         0.2052
     18 C13        -9.0589   -4.6570   -3.4062 C.ar      1 <0>        -0.2151
     19 C14        -8.6638   -5.8685   -2.8581 C.ar      1 <0>         0.1641
     20 N3         -7.5436   -6.0077   -2.1990 N.ar      1 <0>        -0.4626
     21 O2         -8.5607   -2.3431   -3.7574 O.3       1 <0>        -0.2336
     22 C15        -9.6781   -2.2630   -4.5285 C.ar      1 <0>         0.0144
     23 C16        -9.5632   -2.1024   -5.9012 C.ar      1 <0>        -0.0589
     24 C17       -10.6974   -2.0213   -6.6850 C.ar      1 <0>        -0.1418
     25 C18       -11.9540   -2.1000   -6.0993 C.ar      1 <0>         0.2051
     26 C19       -12.0703   -2.2607   -4.7253 C.ar      1 <0>        -0.1609
     27 C20       -10.9345   -2.3476   -3.9415 C.ar      1 <0>         0.1168
     28 F1        -11.0465   -2.5092   -2.6049 F         1 <0>        -0.1196
     29 N4        -13.1043   -2.0168   -6.8949 N.am      1 <0>        -0.6693
     30 C21       -14.2584   -1.5647   -6.3656 C.2       1 <0>         0.7306
     31 O3        -14.3409   -1.3636   -5.1697 O.2       1 <0>        -0.5018
     32 N5        -15.3210   -1.3356   -7.1624 N.am      1 <0>        -0.5854
     33 C22       -15.3931   -1.6486   -8.5975 C.3       1 <0>         0.0677
     34 C23       -16.8063   -1.1887   -9.0051 C.3       1 <0>         0.0878
     35 N6        -17.3804   -0.6655   -7.7564 N.am      1 <0>        -0.5613
     36 C24       -16.4811   -0.7919   -6.7717 C.2       1 <0>         0.7075
     37 O4        -16.6969   -0.4414   -5.6281 O.2       1 <0>        -0.5031
     38 C25       -18.6643   -0.1265   -7.6177 C.ar      1 <0>         0.1775
     39 C26       -19.0248    0.5187   -6.4420 C.ar      1 <0>        -0.1497
     40 C27       -20.2928    1.0495   -6.3081 C.ar      1 <0>        -0.0889
     41 C28       -21.2032    0.9387   -7.3430 C.ar      1 <0>        -0.1390
     42 C29       -20.8473    0.2968   -8.5150 C.ar      1 <0>        -0.0910
     43 C30       -19.5788   -0.2307   -8.6575 C.ar      1 <0>        -0.1535
     44 H2          0.6314    1.8564    0.6363 H         1 <0>         0.1286
     45 H3         -0.9045    1.8382   -0.2630 H         1 <0>         0.1248
     46 H4         -0.9074    1.6521    1.5071 H         1 <0>         0.1247
     47 H5          0.5434   -1.6776    1.4705 H         1 <0>         0.1250
     48 H6          1.4626   -0.1619    1.6315 H         1 <0>         0.1294
     49 H7         -0.0763   -0.3662    2.5023 H         1 <0>         0.1255
     50 H8         -2.9047    0.8140   -0.6509 H         1 <0>         0.1180
     51 H9         -1.6970    0.0249   -1.7176 H         1 <0>         0.1040
     52 H10        -4.3423   -1.0183   -0.7215 H         1 <0>         0.0965
     53 H11        -3.4724   -1.4036   -2.2327 H         1 <0>         0.0990
     54 H12        -0.7147   -2.3686   -0.5841 H         1 <0>         0.0922
     55 H13        -1.4185   -2.6935    1.0296 H         1 <0>         0.1116
     56 H14        -5.1032   -5.9282   -0.8669 H         1 <0>         0.1634
     57 H15        -9.9907   -4.5718   -3.9456 H         1 <0>         0.1532
     58 H16        -9.3054   -6.7286   -2.9805 H         1 <0>         0.1750
     59 H17        -8.5863   -2.0404   -6.3574 H         1 <0>         0.1519
     60 H18       -10.6070   -1.8963   -7.7540 H         1 <0>         0.1491
     61 H19       -13.0474   -2.3220   -4.2693 H         1 <0>         0.1804
     62 H20       -13.0700   -2.2845   -7.8266 H         1 <0>         0.4175
     63 H21       -14.6356   -1.0918   -9.1491 H         1 <0>         0.1058
     64 H22       -15.2772   -2.7199   -8.7617 H         1 <0>         0.1063
     65 H23       -16.7506   -0.4036   -9.7591 H         1 <0>         0.1032
     66 H24       -17.3921   -2.0317   -9.3717 H         1 <0>         0.1025
     67 H25       -18.3145    0.6049   -5.6330 H         1 <0>         0.1534
     68 H26       -20.5737    1.5514   -5.3940 H         1 <0>         0.1295
     69 H27       -22.1943    1.3539   -7.2356 H         1 <0>         0.1265
     70 H28       -21.5607    0.2115   -9.3214 H         1 <0>         0.1301
     71 H29       -19.3000   -0.7280   -9.5748 H         1 <0>         0.1263
     72 H30         0.2400   -0.2484   -0.4141 H         1 <0>         0.4272
@<TRIPOS>BOND
     1    1    2 1
     2    1   44 1
     3    1   45 1
     4    1   46 1
     5    2    3 1
     6    2    4 1
     7    2   72 1
     8    3   47 1
     9    3   48 1
    10    3   49 1
    11    4    5 1
    12    4    9 1
    13    4    6 1
    14    6    7 1
    15    6   50 1
    16    6   51 1
    17    7    8 1
    18    7   52 1
    19    7   53 1
    20    8    9 1
    21    8   10 am
    22    9   54 1
    23    9   55 1
    24   10   11 2
    25   10   12 1
    26   12   16 1
    27   12   13 2
    28   13   14 1
    29   13   56 1
    30   14   20 ar
    31   14   15 ar
    32   15   16 1
    33   15   17 ar
    34   17   18 ar
    35   17   21 1
    36   18   19 ar
    37   18   57 1
    38   19   20 ar
    39   19   58 1
    40   21   22 1
    41   22   27 ar
    42   22   23 ar
    43   23   24 ar
    44   23   59 1
    45   24   25 ar
    46   24   60 1
    47   25   26 ar
    48   25   29 1
    49   26   27 ar
    50   26   61 1
    51   27   28 1
    52   29   30 am
    53   29   62 1
    54   30   31 2
    55   30   32 am
    56   32   36 am
    57   32   33 1
    58   33   34 1
    59   33   63 1
    60   33   64 1
    61   34   35 1
    62   34   65 1
    63   34   66 1
    64   35   36 am
    65   35   38 1
    66   36   37 2
    67   38   43 ar
    68   38   39 ar
    69   39   40 ar
    70   39   67 1
    71   40   41 ar
    72   40   68 1
    73   41   42 ar
    74   41   69 1
    75   42   43 ar
    76   42   70 1
    77   43   71 1
@<TRIPOS>MOLECULE
CHEMBL564371
   51    56     0     0     0
SMALL
USER_CHARGES

@<TRIPOS>ATOM
      1 C1          0.0605    1.8334    0.0602 C.2       1 <0>        -0.1356
      2 C2          1.3713    2.1135   -0.0333 C.2       1 <0>         0.0688
      3 N1          2.1015    0.9606    0.0448 N.pl3     1 <0>        -0.8236
      4 C3          1.2571   -0.1167    0.1942 C.ar      1 <0>         0.0573
      5 C4         -0.0602    0.3817    0.2105 C.ar      1 <0>         0.1213
      6 N2         -1.0951   -0.4436    0.3437 N.ar      1 <0>        -0.4347
      7 C5         -0.9290   -1.7415    0.4638 C.ar      1 <0>         0.1101
      8 C6          0.3472   -2.3097    0.4563 C.ar      1 <0>        -0.0331
      9 C7          1.4629   -1.4854    0.3193 C.ar      1 <0>        -0.0767
     10 C8          0.5137   -3.7786    0.5938 C.2       1 <0>        -0.1739
     11 C9          1.7350   -4.4800    0.6085 C.2       1 <0>         0.0745
     12 N3          1.4710   -5.7525    0.7457 N.2       1 <0>        -0.2757
     13 N4          0.0822   -5.9128    0.8234 N.pl3     1 <0>        -0.3750
     14 C10        -0.4883   -4.6939    0.7347 C.2       1 <0>         0.0675
     15 C11        -0.6282   -7.1844    0.9805 C.3       1 <0>         0.1575
     16 C12        -1.9502   -7.1310    0.2093 C.3       1 <0>        -0.1645
     17 C13        -2.7231   -8.4310    0.4422 C.3       1 <0>         0.0000
     18 N5         -2.9971   -8.5914    1.8753 N.4       1 <0>        -0.5085
     19 C14        -1.7342   -8.7153    2.6130 C.3       1 <0>        -0.0020
     20 C15        -0.9232   -7.4263    2.4636 C.3       1 <0>        -0.1642
     21 S1          3.7535    0.8728   -0.0296 S.o2      1 <0>         2.7017
     22 O1          4.0640   -0.1551   -0.9603 O.2       1 <0>        -0.9175
     23 O2          4.2246    2.2049   -0.1805 O.2       1 <0>        -0.8902
     24 C16         4.3169    0.3145    1.5438 C.2       1 <0>        -0.5919
     25 C17         4.4305    1.0608    2.6560 C.2       1 <0>         0.2220
     26 N6          4.8920    0.2794    3.6448 N.2       1 <0>        -0.4316
     27 C18         5.0684   -0.9257    3.1839 C.2       1 <0>         0.2282
     28 N7          4.7192   -0.9815    1.8606 N.pl3     1 <0>        -0.3765
     29 C19         4.8469   -2.2010    1.2323 C.2       1 <0>         0.0056
     30 C20         5.2883   -3.2679    1.8969 C.2       1 <0>        -0.1587
     31 S2          5.5769   -2.5942    3.5257 S.3       1 <0>         0.2003
     32 Cl1         4.0462    2.7484    2.7904 Cl        1 <0>         0.0565
     33 H1         -0.7512    2.5453    0.0340 H         1 <0>         0.1739
     34 H2          1.7866    3.1032   -0.1528 H         1 <0>         0.2059
     35 H3         -1.7937   -2.3797    0.5703 H         1 <0>         0.1594
     36 H4          2.4604   -1.8993    0.3101 H         1 <0>         0.1296
     37 H5          2.7185   -4.0424    0.5212 H         1 <0>         0.1856
     38 H6         -1.5467   -4.4811    0.7664 H         1 <0>         0.1809
     39 H7         -0.0120   -7.9963    0.5942 H         1 <0>         0.1225
     40 H8         -2.5432   -6.2869    0.5613 H         1 <0>         0.1004
     41 H9         -1.7461   -7.0146   -0.8551 H         1 <0>         0.1261
     42 H10        -3.6647   -8.3964   -0.1057 H         1 <0>         0.1449
     43 H11        -2.1293   -9.2743    0.0896 H         1 <0>         0.1380
     44 H12        -3.5045   -7.7869    2.2118 H         1 <0>         0.4302
     45 H13        -1.9458   -8.8907    3.6678 H         1 <0>         0.1428
     46 H14        -1.1615   -9.5526    2.2141 H         1 <0>         0.1374
     47 H15         0.0148   -7.5210    3.0106 H         1 <0>         0.1233
     48 H16        -1.4949   -6.5884    2.8624 H         1 <0>         0.0971
     49 H17         4.5856   -2.2933    0.1885 H         1 <0>         0.1942
     50 H18         5.4382   -4.2767    1.5415 H         1 <0>         0.2325
     51 H19        -3.5525   -9.4213    2.0196 H         1 <0>         0.4377
@<TRIPOS>BOND
     1    1    5 1
     2    1    2 2
     3    1   33 1
     4    2    3 1
     5    2   34 1
     6    3    4 1
     7    3   21 1
     8    4    9 ar
     9    4    5 ar
    10    5    6 ar
    11    6    7 ar
    12    7    8 ar
    13    7   35 1
    14    8    9 ar
    15    8   10 1
    16    9   36 1
    17   10   14 2
    18   10   11 1
    19   11   12 2
    20   11   37 1
    21   12   13 1
    22   13   14 1
    23   13   15 1
    24   14   38 1
    25   15   20 1
    26   15   16 1
    27   15   39 1
    28   16   17 1
    29   16   40 1
    30   16   41 1
    31   17   18 1
    32   17   42 1
    33   17   43 1
    34   18   19 1
    35   18   44 1
    36   18   51 1
    37   19   20 1
    38   19   45 1
    39   19   46 1
    40   20   47 1
    41   20   48 1
    42   21   22 2
    43   21   23 2
    44   21   24 1
    45   24   28 1
    46   24   25 2
    47   25   26 1
    48   25   32 1
    49   26   27 2
    50   27   31 1
    51   27   28 1
    52   28   29 1
    53   29   30 2
    54   29   49 1
    55   30   31 1
    56   30   50 1
@<TRIPOS>MOLECULE
CHEMBL564371__1
   52    57     0     0     0
SMALL
USER_CHARGES

@<TRIPOS>ATOM
      1 C1          0.0605    1.8334    0.0602 C.2       1 <0>        -0.1658
      2 C2          1.3713    2.1135   -0.0333 C.2       1 <0>         0.1453
      3 N1          2.1015    0.9606    0.0448 N.pl3     1 <0>        -0.8194
      4 C3          1.2571   -0.1167    0.1942 C.ar      1 <0>         0.1005
      5 C4         -0.0602    0.3818    0.2105 C.ar      1 <0>         0.1271
      6 N2         -1.0951   -0.4435    0.3437 N.ar      1 <0>        -0.4093
      7 C5         -0.9290   -1.7414    0.4642 C.ar      1 <0>         0.1446
      8 C6          0.3472   -2.3096    0.4568 C.ar      1 <0>         0.0140
      9 C7          1.4629   -1.4854    0.3193 C.ar      1 <0>        -0.0011
     10 C8          0.5137   -3.7785    0.5947 C.2       1 <0>        -0.2117
     11 C9          1.7350   -4.4799    0.6095 C.2       1 <0>         0.0858
     12 N3          1.4710   -5.7523    0.7472 N.2       1 <0>        -0.2564
     13 N4          0.0823   -5.9126    0.8252 N.pl3     1 <0>        -0.3588
     14 C10        -0.4883   -4.6937    0.7361 C.2       1 <0>         0.0921
     15 C11        -0.6281   -7.1841    0.9828 C.3       1 <0>         0.1488
     16 C12        -1.9502   -7.1311    0.2117 C.3       1 <0>        -0.1628
     17 C13        -2.7231   -8.4309    0.4452 C.3       1 <0>        -0.0016
     18 N5         -2.9969   -8.5909    1.8784 N.4       1 <0>        -0.5091
     19 C14        -1.7339   -8.7145    2.6160 C.3       1 <0>        -0.0036
     20 C15        -0.9230   -7.4256    2.4660 C.3       1 <0>        -0.1625
     21 S1          3.7535    0.8728   -0.0296 S.o2      1 <0>         2.6870
     22 O1          4.0640   -0.1551   -0.9603 O.2       1 <0>        -0.8980
     23 O2          4.2246    2.2049   -0.1805 O.2       1 <0>        -0.8620
     24 C16         4.3169    0.3145    1.5438 C.2       1 <0>        -0.6092
     25 C17         4.4305    1.0608    2.6560 C.2       1 <0>         0.2299
     26 N6          4.8920    0.2794    3.6448 N.2       1 <0>        -0.4258
     27 C18         5.0684   -0.9257    3.1839 C.2       1 <0>         0.2330
     28 N7          4.7192   -0.9815    1.8606 N.pl3     1 <0>        -0.3797
     29 C19         4.8469   -2.2010    1.2323 C.2       1 <0>        -0.0130
     30 C20         5.2883   -3.2679    1.8969 C.2       1 <0>        -0.1492
     31 S2          5.5769   -2.5942    3.5257 S.3       1 <0>         0.2274
     32 Cl1         4.0462    2.7484    2.7904 Cl        1 <0>         0.0616
     33 H1         -0.7512    2.5454    0.0340 H         1 <0>         0.2001
     34 H2          1.7866    3.1033   -0.1528 H         1 <0>         0.2315
     35 H3         -1.7936   -2.3796    0.5711 H         1 <0>         0.2111
     36 H4          2.4604   -1.8993    0.3101 H         1 <0>         0.1648
     37 H5          2.7185   -4.0423    0.5219 H         1 <0>         0.1928
     38 H6         -1.5466   -4.4810    0.7679 H         1 <0>         0.1859
     39 H7         -0.0120   -7.9962    0.5967 H         1 <0>         0.1312
     40 H8         -2.5431   -6.2868    0.5636 H         1 <0>         0.0980
     41 H9         -1.7463   -7.0150   -0.8527 H         1 <0>         0.1276
     42 H10        -3.6648   -8.3965   -0.1025 H         1 <0>         0.1480
     43 H11        -2.1294   -9.2744    0.0928 H         1 <0>         0.1414
     44 H12        -3.5042   -7.7862    2.2147 H         1 <0>         0.4291
     45 H13        -1.9454   -8.8895    3.6709 H         1 <0>         0.1468
     46 H14        -1.1613   -9.5520    2.2173 H         1 <0>         0.1408
     47 H15         0.0152   -7.5201    3.0129 H         1 <0>         0.1262
     48 H16        -1.4946   -6.5874    2.8646 H         1 <0>         0.0966
     49 H17         4.5856   -2.2933    0.1885 H         1 <0>         0.1945
     50 H18         5.4382   -4.2767    1.5415 H         1 <0>         0.2364
     51 H19        -3.5523   -9.4207    2.0231 H         1 <0>         0.4421
     52 H20        -1.9937   -0.0785    0.3524 H         1 <0>         0.4564
@<TRIPOS>BOND
     1    1    5 1
     2    1    2 2
     3    1   33 1
     4    2    3 1
     5    2   34 1
     6    3    4 1
     7    3   21 1
     8    4    9 ar
     9    4    5 ar
    10    5    6 ar
    11    6    7 ar
    12    6   52 1
    13    7    8 ar
    14    7   35 1
    15    8    9 ar
    16    8   10 1
    17    9   36 1
    18   10   14 2
    19   10   11 1
    20   11   12 2
    21   11   37 1
    22   12   13 1
    23   13   14 1
    24   13   15 1
    25   14   38 1
    26   15   20 1
    27   15   16 1
    28   15   39 1
    29   16   17 1
    30   16   40 1
    31   16   41 1
    32   17   18 1
    33   17   42 1
    34   17   43 1
    35   18   19 1
    36   18   44 1
    37   18   51 1
    38   19   20 1
    39   19   45 1
    40   19   46 1
    41   20   47 1
    42   20   48 1
    43   21   22 2
    44   21   23 2
    45   21   24 1
    46   24   28 1
    47   24   25 2
    48   25   26 1
    49   25   32 1
    50   26   27 2
    51   27   31 1
    52   27   28 1
    53   28   29 1
    54   29   30 2
    55   29   49 1
    56   30   31 1
    57   30   50 1
@<TRIPOS>MOLECULE
CHEMBL429743
   57    61     0     0     0
SMALL
USER_CHARGES

@<TRIPOS>ATOM
      1 C1         -1.3300    0.1029   -1.5514 C.3       1 <0>         0.0149
      2 O1         -0.4784   -0.5556   -0.6115 O.3       1 <0>        -0.2864
      3 C2          0.8614   -0.4714   -0.8278 C.ar      1 <0>         0.1348
      4 C3          1.3296    0.2258   -1.9038 C.ar      1 <0>        -0.1364
      5 C4          2.7120    0.3129   -2.1266 C.ar      1 <0>        -0.0899
      6 C5          3.2333    1.0263   -3.2293 C.ar      1 <0>         0.2830
      7 C6          4.6077    1.0685   -3.3836 C.ar      1 <0>        -0.2641
      8 C7          5.4241    0.4194   -2.4659 C.ar      1 <0>         0.2261
      9 N1          4.9295   -0.2404   -1.4451 N.ar      1 <0>        -0.4814
     10 C8          3.6103   -0.3223   -1.2349 C.ar      1 <0>         0.1817
     11 C9          3.0978   -1.0328   -0.1368 C.ar      1 <0>        -0.2357
     12 C10         1.7485   -1.0969    0.0599 C.ar      1 <0>         0.2162
     13 O2          1.2582   -1.7806    1.1270 O.3       1 <0>        -0.2775
     14 C11         2.2108   -2.3966    1.9960 C.3       1 <0>         0.0116
     15 O3          2.4118    1.6501   -4.1095 O.3       1 <0>        -0.2128
     16 C12         2.9792    2.4005   -5.0899 C.ar      1 <0>         0.0441
     17 C13         3.5739    1.7687   -6.1861 C.ar      1 <0>        -0.1346
     18 C14         4.1500    2.4949   -7.1832 C.ar      1 <0>        -0.0847
     19 C15         4.1493    3.8952   -7.1142 C.ar      1 <0>        -0.0008
     20 C16         3.5480    4.5397   -6.0055 C.ar      1 <0>        -0.0533
     21 C17         2.9566    3.7633   -4.9949 C.ar      1 <0>        -0.0781
     22 C18         3.5472    5.9439   -5.9369 C.ar      1 <0>        -0.0644
     23 C19         4.1215    6.6778   -6.9314 C.ar      1 <0>        -0.1164
     24 C20         4.7155    6.0638   -8.0266 C.ar      1 <0>        -0.0508
     25 C21         4.7399    4.6809   -8.1354 C.ar      1 <0>        -0.1284
     26 C22         5.3730    4.0359   -9.3002 C.2       1 <0>         0.5660
     27 O4          5.2978    2.8305   -9.4432 O.2       1 <0>        -0.5113
     28 N2          6.0350    4.7820  -10.2065 N.am      1 <0>        -0.6628
     29 C23         6.7115    4.1624  -11.2625 C.ar      1 <0>         0.1396
     30 C24         7.9063    4.6939  -11.7305 C.ar      1 <0>        -0.1274
     31 C25         8.5724    4.0799  -12.7729 C.ar      1 <0>        -0.0903
     32 C26         8.0502    2.9363  -13.3514 C.ar      1 <0>        -0.0443
     33 C27         6.8597    2.4049  -12.8873 C.ar      1 <0>        -0.0915
     34 C28         6.1926    3.0114  -11.8411 C.ar      1 <0>        -0.1058
     35 Cl1         8.8898    2.1673  -14.6619 Cl        1 <0>        -0.0616
     36 H1         -1.1017    1.1686   -1.5640 H         1 <0>         0.0668
     37 H2         -1.1668   -0.3154   -2.5446 H         1 <0>         0.0673
     38 H3         -2.3709   -0.0423   -1.2625 H         1 <0>         0.1187
     39 H4          0.6394    0.7077   -2.5804 H         1 <0>         0.1725
     40 H5          5.0440    1.6035   -4.2142 H         1 <0>         0.1851
     41 H6          6.4955    0.4587   -2.5965 H         1 <0>         0.2124
     42 H7          3.7695   -1.5228    0.5525 H         1 <0>         0.1714
     43 H8          2.8029   -3.1180    1.4330 H         1 <0>         0.0694
     44 H9          2.8681   -1.6340    2.4136 H         1 <0>         0.0693
     45 H10         1.6878   -2.9077    2.8044 H         1 <0>         0.1216
     46 H11         3.5766    0.6902   -6.2425 H         1 <0>         0.1385
     47 H12         4.6062    1.9941   -8.0243 H         1 <0>         0.1838
     48 H13         2.4903    4.2409   -4.1459 H         1 <0>         0.1467
     49 H14         3.0902    6.4421   -5.0947 H         1 <0>         0.1419
     50 H15         4.1142    7.7558   -6.8670 H         1 <0>         0.1435
     51 H16         5.1629    6.6690   -8.8012 H         1 <0>         0.1368
     52 H17         6.0424    5.7487  -10.1266 H         1 <0>         0.4137
     53 H18         8.3139    5.5868  -11.2799 H         1 <0>         0.1371
     54 H19         9.5015    4.4928  -13.1372 H         1 <0>         0.1411
     55 H20         6.4541    1.5125  -13.3408 H         1 <0>         0.1395
     56 H21         5.2658    2.5937  -11.4764 H         1 <0>         0.1483
     57 H22         5.5350   -0.6797   -0.8276 H         1 <0>         0.4475
@<TRIPOS>BOND
     1    1    2 1
     2    1   36 1
     3    1   37 1
     4    1   38 1
     5    2    3 1
     6    3   12 ar
     7    3    4 ar
     8    4    5 ar
     9    4   39 1
    10    5   10 ar
    11    5    6 ar
    12    6    7 ar
    13    6   15 1
    14    7    8 ar
    15    7   40 1
    16    8    9 ar
    17    8   41 1
    18    9   10 ar
    19    9   57 1
    20   10   11 ar
    21   11   12 ar
    22   11   42 1
    23   12   13 1
    24   13   14 1
    25   14   43 1
    26   14   44 1
    27   14   45 1
    28   15   16 1
    29   16   21 ar
    30   16   17 ar
    31   17   18 ar
    32   17   46 1
    33   18   19 ar
    34   18   47 1
    35   19   25 ar
    36   19   20 ar
    37   20   21 ar
    38   20   22 ar
    39   21   48 1
    40   22   23 ar
    41   22   49 1
    42   23   24 ar
    43   23   50 1
    44   24   25 ar
    45   24   51 1
    46   25   26 1
    47   26   27 2
    48   26   28 am
    49   28   29 1
    50   28   52 1
    51   29   34 ar
    52   29   30 ar
    53   30   31 ar
    54   30   53 1
    55   31   32 ar
    56   31   54 1
    57   32   33 ar
    58   32   35 1
    59   33   34 ar
    60   33   55 1
    61   34   56 1
@<TRIPOS>MOLECULE
CHEMBL162
   62    69     0     0     0
SMALL
USER_CHARGES

@<TRIPOS>ATOM
      1 C1         -0.1276    1.5938   -0.2902 C.3       1 <0>        -0.1687
      2 C2         -0.0844    0.0680   -0.1855 C.3       1 <0>         0.3345
      3 C3          0.5692   -0.4497   -1.4608 C.3       1 <0>         0.0405
      4 H1          1.4795    0.1163   -1.6584 H         1 <0>         0.1372
      5 C4          0.9165   -1.9328   -1.2885 C.3       1 <0>        -0.0062
      6 H2          1.3941   -2.3067   -2.1942 H         1 <0>         0.1555
      7 C5          1.8808   -2.0612   -0.1039 C.3       1 <0>        -0.1828
      8 C6          1.2106   -1.5234    1.1545 C.3       1 <0>         0.3001
      9 O1          0.6584   -0.2480    0.9698 O.3       1 <0>        -0.3232
     10 N1          0.2248   -2.4800    1.6600 N.pl3     1 <0>        -0.5368
     11 C7          0.4774   -3.5588    2.4701 C.ar      1 <0>         0.1470
     12 C8          1.6719   -4.0282    3.0159 C.ar      1 <0>        -0.1521
     13 C9          1.6013   -5.1613    3.8083 C.ar      1 <0>        -0.0582
     14 C10         0.4065   -5.8141    4.0588 C.ar      1 <0>        -0.1457
     15 C11        -0.7928   -5.3694    3.5296 C.ar      1 <0>        -0.0281
     16 C12        -0.7420   -4.2270    2.7281 C.ar      1 <0>        -0.1133
     17 C13        -1.7834   -3.4873    2.0211 C.ar      1 <0>         0.0272
     18 C14        -1.1387   -2.4235    1.3862 C.ar      1 <0>         0.0375
     19 C15        -1.8766   -1.5121    0.6225 C.ar      1 <0>         0.0893
     20 N2         -1.4701   -0.3965   -0.1042 N.pl3     1 <0>        -0.5183
     21 C16        -2.5609    0.1893   -0.7020 C.ar      1 <0>         0.1620
     22 C17        -2.6555    1.3256   -1.5046 C.ar      1 <0>        -0.1301
     23 C18        -3.9158    1.6704   -1.9636 C.ar      1 <0>        -0.0737
     24 C19        -5.0430    0.9315   -1.6503 C.ar      1 <0>        -0.1357
     25 C20        -4.9749   -0.2010   -0.8555 C.ar      1 <0>        -0.0503
     26 C21        -3.7134   -0.5626   -0.3834 C.ar      1 <0>        -0.1044
     27 C22        -3.2655   -1.6685    0.4924 C.ar      1 <0>        -0.0362
     28 C23        -3.9045   -2.7331    1.1195 C.ar      1 <0>        -0.0289
     29 C24        -3.1819   -3.6452    1.8815 C.ar      1 <0>        -0.1255
     30 C25        -4.1160   -4.6505    2.4114 C.2       1 <0>         0.5633
     31 O2         -3.7988   -5.5888    3.1172 O.2       1 <0>        -0.5106
     32 N3         -5.3694   -4.3854    2.0058 N.am      1 <0>        -0.7162
     33 C26        -5.3459   -3.1769    1.1740 C.3       1 <0>         0.1359
     34 N4         -0.3065   -2.7008   -1.0194 N.4       1 <0>        -0.5253
     35 C27         0.0148   -4.1335   -0.9747 C.3       1 <0>        -0.0497
     36 O3         -0.3352   -0.2957   -2.5564 O.3       1 <0>        -0.3613
     37 C28         0.3074   -0.0892   -3.8159 C.3       1 <0>         0.0162
     38 H3          0.8308    2.0068    0.0247 H         1 <0>         0.0984
     39 H4         -0.3256    1.8817   -1.3227 H         1 <0>         0.1037
     40 H5         -0.9185    1.9799    0.3528 H         1 <0>         0.0921
     41 H6          2.1400   -3.1098    0.0419 H         1 <0>         0.1233
     42 H7          2.7852   -1.4878   -0.3076 H         1 <0>         0.1455
     43 H8          1.9835   -1.4379    1.9183 H         1 <0>         0.1550
     44 H9          2.6113   -3.5296    2.8282 H         1 <0>         0.1364
     45 H10         2.5093   -5.5494    4.2456 H         1 <0>         0.1359
     46 H11         0.4102   -6.6943    4.6846 H         1 <0>         0.1352
     47 H12        -1.7231   -5.8814    3.7271 H         1 <0>         0.1602
     48 H13        -1.7841    1.9115   -1.7569 H         1 <0>         0.1438
     49 H14        -4.0225    2.5459   -2.5869 H         1 <0>         0.1335
     50 H15        -6.0015    1.2460   -2.0361 H         1 <0>         0.1333
     51 H16        -5.8562   -0.7761   -0.6128 H         1 <0>         0.1416
     52 H17        -6.1577   -4.9060    2.2257 H         1 <0>         0.4348
     53 H18        -5.9609   -2.3989    1.6262 H         1 <0>         0.1115
     54 H19        -5.7062   -3.4047    0.1708 H         1 <0>         0.1104
     55 H20        -0.6946   -2.4153   -0.1328 H         1 <0>         0.4186
     56 H21         0.7414   -4.3184   -0.1836 H         1 <0>         0.1191
     57 H22        -0.8927   -4.7033   -0.7750 H         1 <0>         0.1256
     58 H23         0.4340   -4.4418   -1.9324 H         1 <0>         0.1255
     59 H24        -0.4469    0.0185   -4.5954 H         1 <0>         0.1100
     60 H25         0.9142    0.8152   -3.7703 H         1 <0>         0.0633
     61 H26         0.9451   -0.9435   -4.0429 H         1 <0>         0.0514
     62 H27        -0.9792   -2.5296   -1.7517 H         1 <0>         0.4274
@<TRIPOS>BOND
     1    1    2 1
     2    1   38 1
     3    1   39 1
     4    1   40 1
     5    2    9 1
     6    2   20 1
     7    2    3 1
     8    3    4 1
     9    3    5 1
    10    3   36 1
    11    5    6 1
    12    5    7 1
    13    5   34 1
    14    7    8 1
    15    7   41 1
    16    7   42 1
    17    8    9 1
    18    8   10 1
    19    8   43 1
    20   10   18 1
    21   10   11 1
    22   11   16 ar
    23   11   12 ar
    24   12   13 ar
    25   12   44 1
    26   13   14 ar
    27   13   45 1
    28   14   15 ar
    29   14   46 1
    30   15   16 ar
    31   15   47 1
    32   16   17 1
    33   17   29 ar
    34   17   18 ar
    35   18   19 ar
    36   19   27 ar
    37   19   20 1
    38   20   21 1
    39   21   26 ar
    40   21   22 ar
    41   22   23 ar
    42   22   48 1
    43   23   24 ar
    44   23   49 1
    45   24   25 ar
    46   24   50 1
    47   25   26 ar
    48   25   51 1
    49   26   27 1
    50   27   28 ar
    51   28   33 1
    52   28   29 ar
    53   29   30 1
    54   30   31 2
    55   30   32 am
    56   32   33 1
    57   32   52 1
    58   33   53 1
    59   33   54 1
    60   34   35 1
    61   34   55 1
    62   34   62 1
    63   35   56 1
    64   35   57 1
    65   35   58 1
    66   36   37 1
    67   37   59 1
    68   37   60 1
    69   37   61 1
@<TRIPOS>MOLECULE
CHEMBL162__1
   61    68     0     0     0
SMALL
USER_CHARGES

@<TRIPOS>ATOM
      1 C1         -0.0567    1.5513   -0.0894 C.3       1 <0>        -0.1681
      2 C2         -0.0278    0.0218   -0.0599 C.3       1 <0>         0.3623
      3 C3          0.5811   -0.4397   -1.3782 C.3       1 <0>         0.0679
      4 H1          1.4914    0.1262   -1.5761 H         1 <0>         0.0865
      5 C4          0.9165   -1.9328   -1.2885 C.3       1 <0>         0.0550
      6 H2          1.3622   -2.2669   -2.2254 H         1 <0>         0.0644
      7 C5          1.9146   -2.1282   -0.1417 C.3       1 <0>        -0.1713
      8 C6          1.2889   -1.6457    1.1613 C.3       1 <0>         0.3303
      9 O1          0.7459   -0.3574    1.0554 O.3       1 <0>        -0.3432
     10 N1          0.3079   -2.6158    1.6500 N.pl3     1 <0>        -0.5147
     11 C7          0.5725   -3.7353    2.3988 C.ar      1 <0>         0.1480
     12 C8          1.7775   -4.2425    2.8844 C.ar      1 <0>        -0.1567
     13 C9          1.7179   -5.4120    3.6229 C.ar      1 <0>        -0.0771
     14 C10         0.5239   -6.0644    3.8782 C.ar      1 <0>        -0.1623
     15 C11        -0.6857   -5.5826    3.4081 C.ar      1 <0>        -0.0380
     16 C12        -0.6461   -4.4031    2.6615 C.ar      1 <0>        -0.1052
     17 C13        -1.6998   -3.6196    2.0235 C.ar      1 <0>        -0.0146
     18 C14        -1.0625   -2.5326    1.4212 C.ar      1 <0>         0.1328
     19 C15        -1.8127   -1.5778    0.7254 C.ar      1 <0>         0.2189
     20 N2         -1.4156   -0.4323    0.0413 N.pl3     1 <0>        -0.4798
     21 C16        -2.5171    0.1927   -0.4937 C.ar      1 <0>         0.1719
     22 C17        -2.6230    1.3676   -1.2371 C.ar      1 <0>        -0.1371
     23 C18        -3.8926    1.7468   -1.6400 C.ar      1 <0>        -0.0918
     24 C19        -5.0181    1.0048   -1.3284 C.ar      1 <0>        -0.1543
     25 C20        -4.9390   -0.1657   -0.5916 C.ar      1 <0>        -0.0609
     26 C21        -3.6680   -0.5623   -0.1765 C.ar      1 <0>        -0.0961
     27 C22        -3.2066   -1.7140    0.6307 C.ar      1 <0>        -0.0806
     28 C23        -3.8384   -2.8014    1.2249 C.ar      1 <0>        -0.0396
     29 C24        -3.1037   -3.7566    1.9194 C.ar      1 <0>        -0.1488
     30 C25        -4.0327   -4.7771    2.4285 C.2       1 <0>         0.5678
     31 O2         -3.7051   -5.7517    3.0781 O.2       1 <0>        -0.5303
     32 N3         -5.2947   -4.4802    2.0748 N.am      1 <0>        -0.7263
     33 C26        -5.2825   -3.2330    1.3021 C.3       1 <0>         0.1443
     34 N4         -0.3065   -2.7008   -1.0194 N.3       1 <0>        -0.6725
     35 C27        -0.9816   -3.0711   -2.2704 C.3       1 <0>         0.0321
     36 O3         -0.3541   -0.2236   -2.4368 O.3       1 <0>        -0.3500
     37 C28         0.2525    0.0376   -3.7040 C.3       1 <0>         0.0254
     38 H3          0.9143    1.9390    0.2190 H         1 <0>         0.0847
     39 H4         -0.2789    1.8910   -1.1010 H         1 <0>         0.0945
     40 H5         -0.8258    1.9134    0.5927 H         1 <0>         0.0811
     41 H6          2.1661   -3.1852   -0.0547 H         1 <0>         0.0955
     42 H7          2.8189   -1.5546   -0.3450 H         1 <0>         0.1024
     43 H8          2.0854   -1.6051    1.9042 H         1 <0>         0.1256
     44 H9          2.7165   -3.7447    2.6923 H         1 <0>         0.1264
     45 H10         2.6343   -5.8299    4.0129 H         1 <0>         0.1227
     46 H11         0.5364   -6.9739    4.4603 H         1 <0>         0.1222
     47 H12        -1.6153   -6.0942    3.6091 H         1 <0>         0.1517
     48 H13        -1.7529    1.9564   -1.4875 H         1 <0>         0.1345
     49 H14        -4.0081    2.6526   -2.2167 H         1 <0>         0.1197
     50 H15        -5.9842    1.3471   -1.6689 H         1 <0>         0.1193
     51 H16        -5.8191   -0.7431   -0.3501 H         1 <0>         0.1299
     52 H17        -6.0819   -5.0031    2.2935 H         1 <0>         0.4244
     53 H18        -5.8747   -2.4718    1.8101 H         1 <0>         0.0969
     54 H19        -5.6755   -3.4081    0.3006 H         1 <0>         0.0963
     55 H20        -0.1054   -3.5172   -0.4616 H         1 <0>         0.3444
     56 H21        -1.8838   -3.6387   -2.0422 H         1 <0>         0.0645
     57 H22        -1.2495   -2.1685   -2.8197 H         1 <0>         0.0818
     58 H23        -0.3126   -3.6808   -2.8776 H         1 <0>         0.0150
     59 H24        -0.5237    0.1905   -4.4538 H         1 <0>         0.0929
     60 H25         0.8707    0.9325   -3.6333 H         1 <0>         0.0448
     61 H26         0.8732   -0.8111   -3.9915 H         1 <0>         0.0400
@<TRIPOS>BOND
     1    1    2 1
     2    1   38 1
     3    1   39 1
     4    1   40 1
     5    2    9 1
     6    2   20 1
     7    2    3 1
     8    3    4 1
     9    3    5 1
    10    3   36 1
    11    5    6 1
    12    5    7 1
    13    5   34 1
    14    7    8 1
    15    7   41 1
    16    7   42 1
    17    8    9 1
    18    8   10 1
    19    8   43 1
    20   10   18 1
    21   10   11 1
    22   11   16 ar
    23   11   12 ar
    24   12   13 ar
    25   12   44 1
    26   13   14 ar
    27   13   45 1
    28   14   15 ar
    29   14   46 1
    30   15   16 ar
    31   15   47 1
    32   16   17 1
    33   17   29 ar
    34   17   18 ar
    35   18   19 ar
    36   19   27 ar
    37   19   20 1
    38   20   21 1
    39   21   26 ar
    40   21   22 ar
    41   22   23 ar
    42   22   48 1
    43   23   24 ar
    44   23   49 1
    45   24   25 ar
    46   24   50 1
    47   25   26 ar
    48   25   51 1
    49   26   27 1
    50   27   28 ar
    51   28   33 1
    52   28   29 ar
    53   29   30 1
    54   30   31 2
    55   30   32 am
    56   32   33 1
    57   32   52 1
    58   33   53 1
    59   33   54 1
    60   34   35 1
    61   34   55 1
    62   35   56 1
    63   35   57 1
    64   35   58 1
    65   36   37 1
    66   37   59 1
    67   37   60 1
    68   37   61 1
@<TRIPOS>MOLECULE
CHEMBL460791
   56    60     0     0     0
SMALL
USER_CHARGES

@<TRIPOS>ATOM
      1 C1          2.4506   -0.2169    0.2630 C.3       1 <0>         0.0146
      2 O1          1.0463   -0.4801    0.2379 O.3       1 <0>        -0.2865
      3 C2          0.3719   -0.1261   -0.8885 C.ar      1 <0>         0.1349
      4 C3          1.0462    0.4471   -1.9277 C.ar      1 <0>        -0.1363
      5 C4          0.3502    0.8122   -3.0898 C.ar      1 <0>        -0.0891
      6 C5          1.0147    1.4073   -4.1858 C.ar      1 <0>         0.2802
      7 C6          0.2618    1.7399   -5.2982 C.ar      1 <0>        -0.2629
      8 C7         -1.1036    1.4842   -5.3073 C.ar      1 <0>         0.2263
      9 N1         -1.7109    0.9310   -4.2839 N.ar      1 <0>        -0.4812
     10 C8         -1.0448    0.5838   -3.1762 C.ar      1 <0>         0.1816
     11 C9         -1.7106   -0.0075   -2.0899 C.ar      1 <0>        -0.2358
     12 C10        -1.0082   -0.3588   -0.9732 C.ar      1 <0>         0.2164
     13 O2         -1.6562   -0.9360    0.0724 O.3       1 <0>        -0.2775
     14 C11        -3.0620   -1.1478   -0.0725 C.3       1 <0>         0.0117
     15 O3          2.3490    1.6455   -4.1484 O.3       1 <0>        -0.2034
     16 C12         2.9247    2.2239   -5.2357 C.ar      1 <0>         0.0359
     17 C13         3.4270    1.4378   -6.2688 C.ar      1 <0>        -0.0948
     18 C14         4.0072    1.9908   -7.3673 C.ar      1 <0>        -0.0528
     19 C15         4.1221    3.3940   -7.5000 C.ar      1 <0>         0.1452
     20 C16         3.6037    4.1673   -6.4364 C.ar      1 <0>        -0.1632
     21 C17         3.0137    3.6054   -5.3317 C.ar      1 <0>        -0.0354
     22 S1          3.9357    5.8265   -6.9777 S.3       1 <0>         0.0415
     23 C18         4.7154    5.4047   -8.5296 C.2       1 <0>         0.4026
     24 N2          4.6670    4.0936   -8.5201 N.2       1 <0>        -0.5185
     25 N3          5.2386    6.2481   -9.4970 N.am      1 <0>        -0.6189
     26 C19         5.7920    5.7327  -10.6125 C.2       1 <0>         0.5079
     27 O4          5.8321    4.5309  -10.7699 O.2       1 <0>        -0.4451
     28 C20         6.3609    6.6497  -11.6644 C.3       1 <0>        -0.0918
     29 C21         6.9145    5.8288  -12.8004 C.ar      1 <0>        -0.0831
     30 C22         8.2321    5.4117  -12.7738 C.ar      1 <0>        -0.1018
     31 C23         8.7400    4.6587  -13.8159 C.ar      1 <0>        -0.1176
     32 C24         7.9300    4.3223  -14.8844 C.ar      1 <0>        -0.1116
     33 C25         6.6121    4.7386  -14.9106 C.ar      1 <0>        -0.1183
     34 C26         6.1031    5.4881  -13.8665 C.ar      1 <0>        -0.1024
     35 H1          2.9359   -0.7562   -0.5505 H         1 <0>         0.0675
     36 H2          2.6220    0.8528    0.1430 H         1 <0>         0.0672
     37 H3          2.8652   -0.5467    1.2157 H         1 <0>         0.1186
     38 H4          2.1100    0.6191   -1.8556 H         1 <0>         0.1733
     39 H5          0.7337    2.1967   -6.1556 H         1 <0>         0.1843
     40 H6         -1.6814    1.7483   -6.1807 H         1 <0>         0.2122
     41 H7         -2.7742   -0.1881   -2.1398 H         1 <0>         0.1712
     42 H8         -3.2450   -1.7999   -0.9265 H         1 <0>         0.0694
     43 H9         -3.4543   -1.6139    0.8313 H         1 <0>         0.1215
     44 H10        -3.5589   -0.1910   -0.2330 H         1 <0>         0.0693
     45 H11         3.3545    0.3627   -6.1960 H         1 <0>         0.1481
     46 H12         4.3858    1.3493   -8.1493 H         1 <0>         0.1517
     47 H13         2.6262    4.2325   -4.5425 H         1 <0>         0.1479
     48 H14         5.2065    7.2094   -9.3711 H         1 <0>         0.4343
     49 H15         5.5744    7.3049  -12.0391 H         1 <0>         0.1149
     50 H16         7.1584    7.2517  -11.2288 H         1 <0>         0.1152
     51 H17         8.8650    5.6745  -11.9390 H         1 <0>         0.1208
     52 H18         9.7696    4.3334  -13.7954 H         1 <0>         0.1250
     53 H19         8.3269    3.7346  -15.6989 H         1 <0>         0.1246
     54 H20         5.9794    4.4762  -15.7456 H         1 <0>         0.1246
     55 H21         5.0724    5.8102  -13.8852 H         1 <0>         0.1203
     56 H22        -2.6663    0.7700   -4.3313 H         1 <0>         0.4475
@<TRIPOS>BOND
     1    1    2 1
     2    1   35 1
     3    1   36 1
     4    1   37 1
     5    2    3 1
     6    3   12 ar
     7    3    4 ar
     8    4    5 ar
     9    4   38 1
    10    5   10 ar
    11    5    6 ar
    12    6    7 ar
    13    6   15 1
    14    7    8 ar
    15    7   39 1
    16    8    9 ar
    17    8   40 1
    18    9   10 ar
    19    9   56 1
    20   10   11 ar
    21   11   12 ar
    22   11   41 1
    23   12   13 1
    24   13   14 1
    25   14   42 1
    26   14   43 1
    27   14   44 1
    28   15   16 1
    29   16   21 ar
    30   16   17 ar
    31   17   18 ar
    32   17   45 1
    33   18   19 ar
    34   18   46 1
    35   19   24 1
    36   19   20 ar
    37   20   21 ar
    38   20   22 1
    39   21   47 1
    40   22   23 1
    41   23   24 2
    42   23   25 1
    43   25   26 am
    44   25   48 1
    45   26   27 2
    46   26   28 1
    47   28   29 1
    48   28   49 1
    49   28   50 1
    50   29   34 ar
    51   29   30 ar
    52   30   31 ar
    53   30   51 1
    54   31   32 ar
    55   31   52 1
    56   32   33 ar
    57   32   53 1
    58   33   34 ar
    59   33   54 1
    60   34   55 1
@<TRIPOS>MOLECULE
CHEMBL455655
   62    67     0     0     0
SMALL
USER_CHARGES

@<TRIPOS>ATOM
      1 C1         -0.8795   -1.4618   -0.0117 C.3       1 <0>        -0.1750
      2 C2         -0.3444   -1.6212    1.4128 C.3       1 <0>         0.0901
      3 N1          0.7025   -0.6255    1.6555 N.pl3     1 <0>        -0.4468
      4 C3          2.0510   -0.8100    1.5110 C.2       1 <0>        -0.0307
      5 C4          2.6472    0.3561    1.8359 C.2       1 <0>        -0.0201
      6 N2          1.6987    1.2367    2.1715 N.2       1 <0>        -0.4528
      7 C5          0.5178    0.6650    2.0633 C.2       1 <0>         0.2632
      8 C6         -0.7796    1.3057    2.3387 C.2       1 <0>        -0.0374
      9 C7         -1.0275    2.4710    2.9946 C.2       1 <0>        -0.1016
     10 C8         -2.3515    2.9180    3.1559 C.ar      1 <0>         0.1594
     11 C9         -3.3437    2.0813    2.5991 C.ar      1 <0>        -0.2076
     12 S1         -2.4138    0.7486    1.8873 S.3       1 <0>         0.1102
     13 C10        -4.6896    2.3918    2.6795 C.ar      1 <0>         0.2113
     14 C11        -5.0500    3.5682    3.3331 C.ar      1 <0>        -0.2335
     15 C12        -4.0460    4.3605    3.8651 C.ar      1 <0>         0.1611
     16 N3         -2.7798    4.0427    3.7747 N.ar      1 <0>        -0.4719
     17 O1         -5.6297    1.5758    2.1379 O.3       1 <0>        -0.2353
     18 C13        -6.9381    1.8826    2.3464 C.ar      1 <0>         0.0230
     19 C14        -7.6978    1.1213    3.2219 C.ar      1 <0>        -0.0610
     20 C15        -9.0266    1.4321    3.4342 C.ar      1 <0>        -0.1416
     21 C16        -9.6033    2.5073    2.7713 C.ar      1 <0>         0.1983
     22 C17        -8.8437    3.2705    1.8950 C.ar      1 <0>        -0.1608
     23 C18        -7.5120    2.9623    1.6867 C.ar      1 <0>         0.1161
     24 F1         -6.7706    3.7074    0.8380 F         1 <0>        -0.1186
     25 N4        -10.9516    2.8216    2.9864 N.am      1 <0>        -0.6683
     26 C19       -11.6561    3.4579    2.0297 C.2       1 <0>         0.7295
     27 O2        -11.0915    3.8846    1.0415 O.2       1 <0>        -0.5010
     28 N5        -12.9868    3.6209    2.1687 N.am      1 <0>        -0.5855
     29 C20       -13.7693    3.2618    3.3608 C.3       1 <0>         0.0678
     30 C21       -15.2121    3.6535    2.9872 C.3       1 <0>         0.0884
     31 N6        -15.0894    4.1917    1.6242 N.am      1 <0>        -0.5624
     32 C22       -13.8056    4.1411    1.2450 C.2       1 <0>         0.7076
     33 O3        -13.4194    4.5286    0.1597 O.2       1 <0>        -0.5028
     34 C23       -16.1450    4.6840    0.8487 C.ar      1 <0>         0.1797
     35 C24       -15.9440    4.9788   -0.4934 C.ar      1 <0>        -0.1498
     36 C25       -16.9881    5.4641   -1.2562 C.ar      1 <0>        -0.0887
     37 C26       -18.2325    5.6569   -0.6848 C.ar      1 <0>        -0.1407
     38 C27       -18.4358    5.3648    0.6515 C.ar      1 <0>        -0.0916
     39 C28       -17.3974    4.8734    1.4181 C.ar      1 <0>        -0.1545
     40 H1         -0.0670   -1.6081   -0.7234 H         1 <0>         0.0687
     41 H2         -1.6584   -2.2026   -0.1923 H         1 <0>         0.0849
     42 H3         -1.2942   -0.4613   -0.1342 H         1 <0>         0.0677
     43 H4         -1.1569   -1.4750    2.1246 H         1 <0>         0.0955
     44 H5          0.0703   -2.6217    1.5354 H         1 <0>         0.1031
     45 H6          2.5446   -1.7176    1.1963 H         1 <0>         0.1837
     46 H7          3.7103    0.5458    1.8267 H         1 <0>         0.1796
     47 H8         -0.2086    3.0526    3.3915 H         1 <0>         0.1605
     48 H9         -6.0872    3.8557    3.4225 H         1 <0>         0.1476
     49 H10        -4.3181    5.2738    4.3732 H         1 <0>         0.1690
     50 H11        -7.2501    0.2846    3.7377 H         1 <0>         0.1522
     51 H12        -9.6176    0.8384    4.1159 H         1 <0>         0.1473
     52 H13        -9.2918    4.1069    1.3791 H         1 <0>         0.1786
     53 H14       -11.3780    2.5813    3.8238 H         1 <0>         0.4162
     54 H15       -13.7015    2.1914    3.5548 H         1 <0>         0.1057
     55 H16       -13.4304    3.8308    4.2266 H         1 <0>         0.1060
     56 H17       -15.8607    2.7775    2.9957 H         1 <0>         0.1025
     57 H18       -15.5896    4.4170    3.6674 H         1 <0>         0.1017
     58 H19       -14.9722    4.8291   -0.9401 H         1 <0>         0.1540
     59 H20       -16.8324    5.6935   -2.3000 H         1 <0>         0.1292
     60 H21       -19.0473    6.0368   -1.2833 H         1 <0>         0.1256
     61 H22       -19.4086    5.5171    1.0950 H         1 <0>         0.1292
     62 H23       -17.5579    4.6411    2.4606 H         1 <0>         0.1260
@<TRIPOS>BOND
     1    1    2 1
     2    1   40 1
     3    1   41 1
     4    1   42 1
     5    2    3 1
     6    2   43 1
     7    2   44 1
     8    3    7 1
     9    3    4 1
    10    4    5 2
    11    4   45 1
    12    5    6 1
    13    5   46 1
    14    6    7 2
    15    7    8 1
    16    8   12 1
    17    8    9 2
    18    9   10 1
    19    9   47 1
    20   10   16 ar
    21   10   11 ar
    22   11   12 1
    23   11   13 ar
    24   13   14 ar
    25   13   17 1
    26   14   15 ar
    27   14   48 1
    28   15   16 ar
    29   15   49 1
    30   17   18 1
    31   18   23 ar
    32   18   19 ar
    33   19   20 ar
    34   19   50 1
    35   20   21 ar
    36   20   51 1
    37   21   22 ar
    38   21   25 1
    39   22   23 ar
    40   22   52 1
    41   23   24 1
    42   25   26 am
    43   25   53 1
    44   26   27 2
    45   26   28 am
    46   28   32 am
    47   28   29 1
    48   29   30 1
    49   29   54 1
    50   29   55 1
    51   30   31 1
    52   30   56 1
    53   30   57 1
    54   31   32 am
    55   31   34 1
    56   32   33 2
    57   34   39 ar
    58   34   35 ar
    59   35   36 ar
    60   35   58 1
    61   36   37 ar
    62   36   59 1
    63   37   38 ar
    64   37   60 1
    65   38   39 ar
    66   38   61 1
    67   39   62 1
@<TRIPOS>MOLECULE
CHEMBL455655__1
   63    68     0     0     0
SMALL
USER_CHARGES

@<TRIPOS>ATOM
      1 C1          0.9913   -1.3566    0.5678 C.3       1 <0>        -0.1799
      2 C2          1.8424   -1.5451   -0.6896 C.3       1 <0>         0.0810
      3 N1          1.4272   -0.5790   -1.7096 N.pl3     1 <0>        -0.3959
      4 C3          0.5285   -0.7959   -2.7189 C.2       1 <0>         0.0365
      5 C4          0.4408    0.3511   -3.4242 C.2       1 <0>         0.0162
      6 N2          1.2592    1.2516   -2.8703 N.pl3     1 <0>        -0.4643
      7 C5          1.8592    0.7113   -1.8306 C.cat     1 <0>         0.3957
      8 C6          2.8323    1.3815   -0.9511 C.2       1 <0>        -0.1722
      9 C7          3.7674    2.3140   -1.2763 C.2       1 <0>        -0.0294
     10 C8          4.6118    2.8383   -0.2810 C.ar      1 <0>         0.1262
     11 C9          4.4031    2.3277    1.0191 C.ar      1 <0>        -0.1867
     12 S1          3.0703    1.1763    0.8056 S.3       1 <0>         0.1816
     13 C10         5.1578    2.7499    2.0991 C.ar      1 <0>         0.2078
     14 C11         6.1449    3.7064    1.8713 C.ar      1 <0>        -0.2029
     15 C12         6.3171    4.1812    0.5815 C.ar      1 <0>         0.1691
     16 N3          5.5887    3.7641   -0.4224 N.ar      1 <0>        -0.4600
     17 O1          4.9428    2.2483    3.3420 O.3       1 <0>        -0.2307
     18 C13         5.7898    2.6241    4.3375 C.ar      1 <0>         0.0079
     19 C14         6.7241    1.7249    4.8292 C.ar      1 <0>        -0.0565
     20 C15         7.5847    2.1056    5.8401 C.ar      1 <0>        -0.1416
     21 C16         7.5152    3.3891    6.3652 C.ar      1 <0>         0.2095
     22 C17         6.5806    4.2904    5.8736 C.ar      1 <0>        -0.1608
     23 C18         5.7228    3.9105    4.8579 C.ar      1 <0>         0.1177
     24 F1          4.8163    4.7883    4.3752 F         1 <0>        -0.1199
     25 N4          8.3878    3.7745    7.3914 N.am      1 <0>        -0.6697
     26 C19         8.0274    4.7461    8.2531 C.2       1 <0>         0.7310
     27 O2          7.0117    5.3849    8.0586 O.2       1 <0>        -0.5017
     28 N5          8.7931    5.0094    9.3306 N.am      1 <0>        -0.5852
     29 C20        10.0991    4.3976    9.6177 C.3       1 <0>         0.0677
     30 C21        10.5253    5.0451   10.9496 C.3       1 <0>         0.0877
     31 N6          9.4141    5.9529   11.2715 N.am      1 <0>        -0.5608
     32 C22         8.4879    5.8741   10.3070 C.2       1 <0>         0.7073
     33 O3          7.4617    6.5253   10.3187 O.2       1 <0>        -0.5028
     34 C23         9.3389    6.7732   12.4027 C.ar      1 <0>         0.1767
     35 C24         8.1562    7.4355   12.7046 C.ar      1 <0>        -0.1495
     36 C25         8.0851    8.2440   13.8220 C.ar      1 <0>        -0.0888
     37 C26         9.1901    8.3949   14.6396 C.ar      1 <0>        -0.1384
     38 C27        10.3694    7.7371   14.3414 C.ar      1 <0>        -0.0909
     39 C28        10.4451    6.9222   13.2289 C.ar      1 <0>        -0.1532
     40 H1          1.1263   -0.3446    0.9496 H         1 <0>         0.0682
     41 H2         -0.0589   -1.5155    0.3229 H         1 <0>         0.0806
     42 H3          1.3002   -2.0754    1.3267 H         1 <0>         0.1073
     43 H4          2.8926   -1.3863   -0.4447 H         1 <0>         0.1193
     44 H5          1.7074   -2.5571   -1.0713 H         1 <0>         0.1338
     45 H6         -0.0090   -1.7122   -2.9139 H         1 <0>         0.2299
     46 H7         -0.1844    0.5140   -4.2897 H         1 <0>         0.2306
     47 H8          3.8618    2.6513   -2.2979 H         1 <0>         0.1609
     48 H9          6.7608    4.0691    2.6810 H         1 <0>         0.1584
     49 H10         7.0805    4.9227    0.3976 H         1 <0>         0.1799
     50 H11         6.7786    0.7262    4.4215 H         1 <0>         0.1528
     51 H12         8.3118    1.4045    6.2226 H         1 <0>         0.1507
     52 H13         6.5262    5.2888    6.2817 H         1 <0>         0.1817
     53 H14         9.2514    3.3421    7.4816 H         1 <0>         0.4181
     54 H15         9.9992    3.3182    9.7317 H         1 <0>         0.1060
     55 H16        10.8144    4.6356    8.8304 H         1 <0>         0.1063
     56 H17        10.6370    4.2872   11.7250 H         1 <0>         0.1036
     57 H18        11.4522    5.6046   10.8237 H         1 <0>         0.1028
     58 H19         7.2931    7.3187   12.0661 H         1 <0>         0.1533
     59 H20         7.1656    8.7594   14.0574 H         1 <0>         0.1297
     60 H21         9.1321    9.0280   15.5126 H         1 <0>         0.1268
     61 H22        11.2309    7.8575   14.9815 H         1 <0>         0.1303
     62 H23        11.3650    6.4053   12.9990 H         1 <0>         0.1264
     63 H24         1.3877    2.1608   -3.1829 H         1 <0>         0.4648
@<TRIPOS>BOND
     1    1    2 1
     2    1   40 1
     3    1   41 1
     4    1   42 1
     5    2    3 1
     6    2   43 1
     7    2   44 1
     8    3    7 1
     9    3    4 1
    10    4    5 2
    11    4   45 1
    12    5    6 1
    13    5   46 1
    14    6    7 2
    15    6   63 1
    16    7    8 1
    17    8   12 1
    18    8    9 2
    19    9   10 1
    20    9   47 1
    21   10   16 ar
    22   10   11 ar
    23   11   12 1
    24   11   13 ar
    25   13   14 ar
    26   13   17 1
    27   14   15 ar
    28   14   48 1
    29   15   16 ar
    30   15   49 1
    31   17   18 1
    32   18   23 ar
    33   18   19 ar
    34   19   20 ar
    35   19   50 1
    36   20   21 ar
    37   20   51 1
    38   21   22 ar
    39   21   25 1
    40   22   23 ar
    41   22   52 1
    42   23   24 1
    43   25   26 am
    44   25   53 1
    45   26   27 2
    46   26   28 am
    47   28   32 am
    48   28   29 1
    49   29   30 1
    50   29   54 1
    51   29   55 1
    52   30   31 1
    53   30   56 1
    54   30   57 1
    55   31   32 am
    56   31   34 1
    57   32   33 2
    58   34   39 ar
    59   34   35 ar
    60   35   36 ar
    61   35   58 1
    62   36   37 ar
    63   36   59 1
    64   37   38 ar
    65   37   60 1
    66   38   39 ar
    67   38   61 1
    68   39   62 1
@<TRIPOS>MOLECULE
CHEMBL254761
   65    69     0     0     0
SMALL
USER_CHARGES

@<TRIPOS>ATOM
      1 C1          0.7588    1.9323   -0.6478 C.3       1 <0>         0.0244
      2 N1          0.5512    0.5067   -0.3604 N.3       1 <0>        -0.5433
      3 C2          0.7931   -0.3119   -1.5560 C.3       1 <0>         0.0388
      4 C3          0.3931   -1.7627   -1.2670 C.3       1 <0>         0.1179
      5 N2          1.0968   -2.2088   -0.0550 N.am      1 <0>        -0.6033
      6 C4          1.0137   -1.3664    1.1478 C.3       1 <0>         0.0967
      7 C5          1.3893    0.0688    0.7638 C.3       1 <0>         0.0416
      8 C6          1.7989   -3.3593   -0.0466 C.2       1 <0>         0.6039
      9 O1          1.8305   -4.0596   -1.0405 O.2       1 <0>        -0.5110
     10 C7          2.5271   -3.7681    1.1651 C.2       1 <0>        -0.1675
     11 C8          3.7404   -4.3756    1.2611 C.2       1 <0>        -0.0646
     12 C9          4.2714   -4.6873    2.5252 C.ar      1 <0>         0.1426
     13 C10         3.4633   -4.3265    3.6258 C.ar      1 <0>        -0.2016
     14 S1          2.0402   -3.5822    2.8720 S.3       1 <0>         0.1328
     15 C11         3.8564   -4.5707    4.9326 C.ar      1 <0>         0.2075
     16 C12         5.0854   -5.1896    5.1379 C.ar      1 <0>        -0.2232
     17 C13         5.8475   -5.5273    4.0292 C.ar      1 <0>         0.1605
     18 N3          5.4526   -5.2854    2.8069 N.ar      1 <0>        -0.4672
     19 O2          3.0674   -4.2168    5.9788 O.3       1 <0>        -0.2368
     20 C14         3.5552   -4.3958    7.2356 C.ar      1 <0>         0.0464
     21 C15         3.2227   -5.5354    7.9526 C.ar      1 <0>        -0.0781
     22 C16         3.7172   -5.7178    9.2292 C.ar      1 <0>        -0.0694
     23 C17         4.5480   -4.7602    9.7960 C.ar      1 <0>         0.1679
     24 C18         4.8820   -3.6191    9.0790 C.ar      1 <0>        -0.1465
     25 C19         4.3912   -3.4396    7.7989 C.ar      1 <0>         0.1068
     26 F1          4.7199   -2.3323    7.0982 F         1 <0>        -0.1211
     27 N4          5.0484   -4.9452   11.0909 N.pl3     1 <0>        -0.6272
     28 C20         5.5155   -6.1523   11.4667 C.2       1 <0>         0.5072
     29 S2          5.6334   -7.4191   10.3212 S.2       1 <0>        -0.4714
     30 N5          5.8898   -6.3621   12.7444 N.am      1 <0>        -0.6412
     31 C21         6.3569   -7.5692   13.1202 C.2       1 <0>         0.4828
     32 O3          6.4404   -8.4663   12.3090 O.2       1 <0>        -0.3883
     33 C22         6.7753   -7.8037   14.5488 C.3       1 <0>        -0.0933
     34 C23         7.2556   -9.2236   14.7049 C.ar      1 <0>        -0.0804
     35 C24         6.3612  -10.2229   15.0402 C.ar      1 <0>        -0.1012
     36 C25         6.8018  -11.5253   15.1834 C.ar      1 <0>        -0.1181
     37 C26         8.1366  -11.8285   14.9908 C.ar      1 <0>        -0.1128
     38 C27         9.0309  -10.8294   14.6546 C.ar      1 <0>        -0.1181
     39 C28         8.5896   -9.5277   14.5073 C.ar      1 <0>        -0.1014
     40 H1          1.8044    2.1028   -0.9042 H         1 <0>         0.0274
     41 H2          0.1263    2.2302   -1.4841 H         1 <0>         0.0722
     42 H3          0.4996    2.5217    0.2318 H         1 <0>         0.0721
     43 H4          0.1985    0.0710   -2.3854 H         1 <0>         0.0933
     44 H5          1.8506   -0.2712   -1.8168 H         1 <0>         0.0416
     45 H6         -0.6836   -1.8209   -1.1076 H         1 <0>         0.0834
     46 H7          0.6762   -2.3951   -2.1085 H         1 <0>         0.1016
     47 H8         -0.0033   -1.3865    1.5393 H         1 <0>         0.0881
     48 H9          1.7072   -1.7368    1.9028 H         1 <0>         0.0957
     49 H10         2.4385    0.1042    0.4706 H         1 <0>         0.0422
     50 H11         1.2271    0.7278    1.6167 H         1 <0>         0.0933
     51 H12         4.2954   -4.6186    0.3670 H         1 <0>         0.1587
     52 H13         5.4377   -5.4017    6.1366 H         1 <0>         0.1539
     53 H14         6.8025   -6.0080    4.1815 H         1 <0>         0.1711
     54 H15         2.5764   -6.2804    7.5126 H         1 <0>         0.1532
     55 H16         3.4574   -6.6054    9.7869 H         1 <0>         0.1565
     56 H17         5.5277   -2.8739    9.5195 H         1 <0>         0.1501
     57 H18         5.0589   -4.2046   11.7172 H         1 <0>         0.4122
     58 H19         5.8230   -5.6443   13.3934 H         1 <0>         0.4126
     59 H20         7.5809   -7.1170   14.8089 H         1 <0>         0.1092
     60 H21         5.9251   -7.6331   15.2092 H         1 <0>         0.1094
     61 H22         5.3183   -9.9859   15.1907 H         1 <0>         0.1203
     62 H23         6.1031  -12.3059   15.4460 H         1 <0>         0.1239
     63 H24         8.4810  -12.8459   15.1034 H         1 <0>         0.1233
     64 H25        10.0738  -11.0663   14.5045 H         1 <0>         0.1238
     65 H26         9.2875   -8.7477   14.2410 H         1 <0>         0.1201
@<TRIPOS>BOND
     1    1    2 1
     2    1   40 1
     3    1   41 1
     4    1   42 1
     5    2    7 1
     6    2    3 1
     7    3    4 1
     8    3   43 1
     9    3   44 1
    10    4    5 1
    11    4   45 1
    12    4   46 1
    13    5    6 1
    14    5    8 am
    15    6    7 1
    16    6   47 1
    17    6   48 1
    18    7   49 1
    19    7   50 1
    20    8    9 2
    21    8   10 1
    22   10   14 1
    23   10   11 2
    24   11   12 1
    25   11   51 1
    26   12   18 ar
    27   12   13 ar
    28   13   14 1
    29   13   15 ar
    30   15   16 ar
    31   15   19 1
    32   16   17 ar
    33   16   52 1
    34   17   18 ar
    35   17   53 1
    36   19   20 1
    37   20   25 ar
    38   20   21 ar
    39   21   22 ar
    40   21   54 1
    41   22   23 ar
    42   22   55 1
    43   23   24 ar
    44   23   27 1
    45   24   25 ar
    46   24   56 1
    47   25   26 1
    48   27   28 1
    49   27   57 1
    50   28   29 2
    51   28   30 1
    52   30   31 am
    53   30   58 1
    54   31   32 2
    55   31   33 1
    56   33   34 1
    57   33   59 1
    58   33   60 1
    59   34   39 ar
    60   34   35 ar
    61   35   36 ar
    62   35   61 1
    63   36   37 ar
    64   36   62 1
    65   37   38 ar
    66   37   63 1
    67   38   39 ar
    68   38   64 1
    69   39   65 1
@<TRIPOS>MOLECULE
CHEMBL254761__1
   66    70     0     0     0
SMALL
USER_CHARGES

@<TRIPOS>ATOM
      1 C1          0.6150    1.9281   -0.5654 C.3       1 <0>        -0.0471
      2 N1          0.4392    0.4948   -0.2962 N.4       1 <0>        -0.3863
      3 C2          0.8165   -0.2752   -1.4882 C.3       1 <0>        -0.0211
      4 C3          0.5254   -1.7604   -1.2489 C.3       1 <0>         0.0910
      5 N2          1.2100   -2.1769   -0.0152 N.am      1 <0>        -0.6267
      6 C4          1.0164   -1.3618    1.1940 C.3       1 <0>         0.0665
      7 C5          1.2843    0.1045    0.8394 C.3       1 <0>        -0.0190
      8 C6          1.9921   -3.2743    0.0066 C.2       1 <0>         0.6198
      9 O1          2.1163   -3.9527   -0.9952 O.2       1 <0>        -0.4827
     10 C7          2.6959   -3.6519    1.2428 C.2       1 <0>        -0.2031
     11 C8          3.9322   -4.2022    1.3806 C.2       1 <0>        -0.0337
     12 C9          4.4326   -4.4922    2.6623 C.ar      1 <0>         0.1333
     13 C10         3.5704   -4.1724    3.7342 C.ar      1 <0>        -0.1890
     14 S1          2.1413   -3.4935    2.9317 S.3       1 <0>         0.1167
     15 C11         3.9286   -4.4015    5.0538 C.ar      1 <0>         0.2054
     16 C12         5.1772   -4.9628    5.3014 C.ar      1 <0>        -0.2104
     17 C13         5.9926   -5.2616    4.2197 C.ar      1 <0>         0.1657
     18 N3          5.6299   -5.0351    2.9846 N.ar      1 <0>        -0.4619
     19 O2          3.0877   -4.0877    6.0720 O.3       1 <0>        -0.2359
     20 C14         3.5380   -4.2499    7.3450 C.ar      1 <0>         0.0381
     21 C15         3.2284   -5.4045    8.0481 C.ar      1 <0>        -0.0768
     22 C16         3.6848   -5.5700    9.3410 C.ar      1 <0>        -0.0685
     23 C17         4.4543   -4.5802    9.9383 C.ar      1 <0>         0.1757
     24 C18         4.7653   -3.4240    9.2352 C.ar      1 <0>        -0.1468
     25 C19         4.3129   -3.2614    7.9388 C.ar      1 <0>         0.1067
     26 F1          4.6195   -2.1392    7.2519 F         1 <0>        -0.1236
     27 N4          4.9162   -4.7481   11.2497 N.pl3     1 <0>        -0.6299
     28 C20         5.4201   -5.9356   11.6399 C.2       1 <0>         0.5075
     29 S2          5.6291   -7.1937   10.4978 S.2       1 <0>        -0.4703
     30 N5          5.7594   -6.1328   12.9293 N.am      1 <0>        -0.6399
     31 C21         6.2633   -7.3203   13.3195 C.2       1 <0>         0.4827
     32 O3          6.4113   -8.2113   12.5106 O.2       1 <0>        -0.3873
     33 C22         6.6427   -7.5408   14.7612 C.3       1 <0>        -0.0926
     34 C23         7.1760   -8.9399   14.9320 C.ar      1 <0>        -0.0822
     35 C24         6.3131   -9.9762   15.2358 C.ar      1 <0>        -0.1013
     36 C25         6.8023  -11.2595   15.3925 C.ar      1 <0>        -0.1178
     37 C26         8.1543  -11.5067   15.2449 C.ar      1 <0>        -0.1116
     38 C27         9.0171  -10.4705   14.9402 C.ar      1 <0>        -0.1178
     39 C28         8.5273   -9.1879   14.7793 C.ar      1 <0>        -0.1014
     40 H1          1.6598    2.1275   -0.8037 H         1 <0>         0.1228
     41 H2         -0.0119    2.2191   -1.4083 H         1 <0>         0.1270
     42 H3          0.3277    2.5013    0.3161 H         1 <0>         0.1266
     43 H4          0.2399    0.0748   -2.3445 H         1 <0>         0.1481
     44 H5          1.8798   -0.1405   -1.6863 H         1 <0>         0.1355
     45 H6         -0.5487   -1.9103   -1.1402 H         1 <0>         0.1013
     46 H7          0.8968   -2.3465   -2.0896 H         1 <0>         0.1404
     47 H8         -0.0082   -1.4715    1.5494 H         1 <0>         0.1061
     48 H9          1.7123   -1.6844    1.9685 H         1 <0>         0.1357
     49 H10         2.3335    0.2277    0.5709 H         1 <0>         0.1365
     50 H11         1.0525    0.7344    1.6983 H         1 <0>         0.1486
     51 H12         4.5288   -4.4167    0.5063 H         1 <0>         0.1617
     52 H13         5.5039   -5.1609    6.3116 H         1 <0>         0.1591
     53 H14         6.9632   -5.6975    4.4050 H         1 <0>         0.1768
     54 H15         2.6297   -6.1746    7.5844 H         1 <0>         0.1534
     55 H16         3.4429   -6.4693    9.8879 H         1 <0>         0.1586
     56 H17         5.3635   -2.6538    9.6994 H         1 <0>         0.1517
     57 H18         4.8734   -4.0096   11.8772 H         1 <0>         0.4133
     58 H19         5.6409   -5.4200   13.5764 H         1 <0>         0.4136
     59 H20         7.4097   -6.8219   15.0491 H         1 <0>         0.1098
     60 H21         5.7642   -7.4072   15.3926 H         1 <0>         0.1100
     61 H22         5.2568   -9.7831   15.3511 H         1 <0>         0.1201
     62 H23         6.1282  -12.0691   15.6306 H         1 <0>         0.1244
     63 H24         8.5367  -12.5092   15.3680 H         1 <0>         0.1241
     64 H25        10.0735  -10.6635   14.8252 H         1 <0>         0.1244
     65 H26         9.2009   -8.3790   14.5376 H         1 <0>         0.1200
     66 H27        -0.5277    0.3119   -0.0728 H         1 <0>         0.4264
@<TRIPOS>BOND
     1    1    2 1
     2    1   40 1
     3    1   41 1
     4    1   42 1
     5    2    7 1
     6    2    3 1
     7    2   66 1
     8    3    4 1
     9    3   43 1
    10    3   44 1
    11    4    5 1
    12    4   45 1
    13    4   46 1
    14    5    6 1
    15    5    8 am
    16    6    7 1
    17    6   47 1
    18    6   48 1
    19    7   49 1
    20    7   50 1
    21    8    9 2
    22    8   10 1
    23   10   14 1
    24   10   11 2
    25   11   12 1
    26   11   51 1
    27   12   18 ar
    28   12   13 ar
    29   13   14 1
    30   13   15 ar
    31   15   16 ar
    32   15   19 1
    33   16   17 ar
    34   16   52 1
    35   17   18 ar
    36   17   53 1
    37   19   20 1
    38   20   25 ar
    39   20   21 ar
    40   21   22 ar
    41   21   54 1
    42   22   23 ar
    43   22   55 1
    44   23   24 ar
    45   23   27 1
    46   24   25 ar
    47   24   56 1
    48   25   26 1
    49   27   28 1
    50   27   57 1
    51   28   29 2
    52   28   30 1
    53   30   31 am
    54   30   58 1
    55   31   32 2
    56   31   33 1
    57   33   34 1
    58   33   59 1
    59   33   60 1
    60   34   39 ar
    61   34   35 ar
    62   35   36 ar
    63   35   61 1
    64   36   37 ar
    65   36   62 1
    66   37   38 ar
    67   37   63 1
    68   38   39 ar
    69   38   64 1
    70   39   65 1
@<TRIPOS>MOLECULE
CHEMBL598911
   42    44     0     0     0
SMALL
USER_CHARGES

@<TRIPOS>ATOM
      1 C1          0.1946    1.4991   -0.1384 C.3       1 <0>        -0.1808
      2 C2          0.0001   -0.0121   -0.0001 C.3       1 <0>         0.1174
      3 C3         -1.4690   -0.3192    0.1358 C.ar      1 <0>        -0.0492
      4 C4         -2.1231   -0.0581    1.3268 C.ar      1 <0>        -0.0157
      5 C5         -3.4716   -0.3396    1.4523 C.ar      1 <0>        -0.0768
      6 C6         -4.1673   -0.8816    0.3879 C.ar      1 <0>        -0.1219
      7 C7         -3.5146   -1.1430   -0.8042 C.ar      1 <0>         0.1178
      8 C8         -2.1646   -0.8565   -0.9316 C.ar      1 <0>        -0.0571
      9 Cl1        -1.3461   -1.1775   -2.4284 Cl        1 <0>        -0.0281
     10 F1         -4.1941   -1.6731   -1.8446 F         1 <0>        -0.1168
     11 Cl2        -1.2508    0.6226    2.6645 Cl        1 <0>        -0.0239
     12 O1          0.6932   -0.4774    1.1597 O.3       1 <0>        -0.2883
     13 C9          2.0138   -0.7639    1.0157 C.ar      1 <0>         0.1365
     14 C10         2.6539   -0.4847   -0.1956 C.ar      1 <0>        -0.1711
     15 C11         3.9747   -0.7598   -0.3708 C.ar      1 <0>        -0.0506
     16 C12         4.7158   -1.3338    0.6767 C.ar      1 <0>         0.1036
     17 C13         4.0669   -1.6173    1.9058 C.ar      1 <0>        -0.0637
     18 C14         2.7028   -1.3164    2.0579 C.ar      1 <0>        -0.1391
     19 C15         4.8057   -2.1908    2.9537 C.ar      1 <0>        -0.0367
     20 C16         6.1551   -2.4563    2.7322 C.ar      1 <0>        -0.1223
     21 C17         6.7248   -2.1450    1.4825 C.ar      1 <0>         0.1369
     22 N1          6.0159   -1.6108    0.5224 N.ar      1 <0>        -0.4623
     23 C18         6.9777   -3.0560    3.7943 C.2       1 <0>        -0.0110
     24 C19         8.2837   -3.3105    3.5732 C.2       1 <0>        -0.2121
     25 C20         9.1022   -3.9072    4.6299 C.2       1 <0>         0.5507
     26 O2          8.6043   -4.1737    5.7080 O.2       1 <0>        -0.5472
     27 N2         10.4072   -4.1615    4.4091 N.am      1 <0>        -0.8506
     28 H1          1.2572    1.7212   -0.2367 H         1 <0>         0.0763
     29 H2         -0.3341    1.8540   -1.0230 H         1 <0>         0.0784
     30 H3         -0.2007    1.9988    0.7460 H         1 <0>         0.0787
     31 H4          0.3954   -0.5118   -0.8845 H         1 <0>         0.0972
     32 H5         -3.9811   -0.1361    2.3826 H         1 <0>         0.1556
     33 H6         -5.2200   -1.1015    0.4867 H         1 <0>         0.1596
     34 H7          2.0909   -0.0440   -1.0051 H         1 <0>         0.1395
     35 H8          4.4530   -0.5379   -1.3133 H         1 <0>         0.1432
     36 H9          2.2013   -1.5243    2.9915 H         1 <0>         0.1411
     37 H10         4.3419   -2.4186    3.9021 H         1 <0>         0.1478
     38 H11         7.7714   -2.3515    1.3136 H         1 <0>         0.1630
     39 H12         6.5359   -3.2925    4.7509 H         1 <0>         0.1411
     40 H13         8.7256   -3.0740    2.6165 H         1 <0>         0.1330
     41 H14        10.8040   -3.9491    3.5498 H         1 <0>         0.4033
     42 H15        10.9496   -4.5569    5.1093 H         1 <0>         0.4048
@<TRIPOS>BOND
     1    1    2 1
     2    1   28 1
     3    1   29 1
     4    1   30 1
     5    2    3 1
     6    2   12 1
     7    2   31 1
     8    3    8 ar
     9    3    4 ar
    10    4    5 ar
    11    4   11 1
    12    5    6 ar
    13    5   32 1
    14    6    7 ar
    15    6   33 1
    16    7    8 ar
    17    7   10 1
    18    8    9 1
    19   12   13 1
    20   13   18 ar
    21   13   14 ar
    22   14   15 ar
    23   14   34 1
    24   15   16 ar
    25   15   35 1
    26   16   22 ar
    27   16   17 ar
    28   17   18 ar
    29   17   19 ar
    30   18   36 1
    31   19   20 ar
    32   19   37 1
    33   20   21 ar
    34   20   23 1
    35   21   22 ar
    36   21   38 1
    37   23   24 2
    38   23   39 1
    39   24   25 1
    40   24   40 1
    41   25   26 2
    42   25   27 am
    43   27   41 1
    44   27   42 1
@<TRIPOS>MOLECULE
CHEMBL598911__1
   42    44     0     0     0
SMALL
USER_CHARGES

@<TRIPOS>ATOM
      1 C1          0.2904    1.2805   -0.1356 C.3       1 <0>        -0.1804
      2 C2          0.0643   -0.2276   -0.0104 C.3       1 <0>         0.1172
      3 C3          0.6927   -0.7254    1.2657 C.ar      1 <0>        -0.0493
      4 C4          0.0812   -0.4755    2.4814 C.ar      1 <0>        -0.0156
      5 C5          0.6573   -0.9322    3.6532 C.ar      1 <0>        -0.0769
      6 C6          1.8444   -1.6391    3.6107 C.ar      1 <0>        -0.1219
      7 C7          2.4571   -1.8904    2.3955 C.ar      1 <0>         0.1177
      8 C8          1.8774   -1.4370    1.2211 C.ar      1 <0>        -0.0571
      9 Cl1         2.6414   -1.7571   -0.3045 Cl        1 <0>        -0.0282
     10 F1          3.6176   -2.5809    2.3536 F         1 <0>        -0.1168
     11 Cl2        -1.4097    0.4123    2.5363 Cl        1 <0>        -0.0237
     12 O1         -1.3386   -0.4987    0.0122 O.3       1 <0>        -0.2881
     13 C9         -1.9654   -0.6068   -1.1887 C.ar      1 <0>         0.1365
     14 C10        -1.2562   -0.3450   -2.3650 C.ar      1 <0>        -0.1711
     15 C11        -1.8555   -0.4445   -3.5823 C.ar      1 <0>        -0.0505
     16 C12        -3.2085   -0.8156   -3.6690 C.ar      1 <0>         0.1036
     17 C13        -3.9284   -1.0813   -2.4759 C.ar      1 <0>        -0.0637
     18 C14        -3.2800   -0.9754   -1.2339 C.ar      1 <0>        -0.1391
     19 C15        -5.2805   -1.4523   -2.5604 C.ar      1 <0>        -0.0367
     20 C16        -5.8550   -1.5423   -3.8263 C.ar      1 <0>        -0.1223
     21 C17        -5.0716   -1.2621   -4.9624 C.ar      1 <0>         0.1369
     22 N1         -3.8142   -0.9189   -4.8577 N.ar      1 <0>        -0.4623
     23 C18        -7.2672   -1.9270   -3.9748 C.2       1 <0>        -0.0111
     24 C19        -7.8173   -2.0123   -5.2034 C.2       1 <0>        -0.2121
     25 C20        -9.2224   -2.3950   -5.3512 C.2       1 <0>         0.5508
     26 O2         -9.8943   -2.6364   -4.3656 O.2       1 <0>        -0.5472
     27 N2         -9.7721   -2.4802   -6.5788 N.am      1 <0>        -0.8506
     28 H1          1.3604    1.4873   -0.1528 H         1 <0>         0.0784
     29 H2         -0.1642    1.6406   -1.0585 H         1 <0>         0.0762
     30 H3         -0.1642    1.7879    0.7153 H         1 <0>         0.0785
     31 H4          0.5188   -0.7350   -0.8613 H         1 <0>         0.0972
     32 H5          0.1796   -0.7359    4.6017 H         1 <0>         0.1556
     33 H6          2.2939   -1.9951    4.5259 H         1 <0>         0.1595
     34 H7         -0.2165   -0.0589   -2.3063 H         1 <0>         0.1395
     35 H8         -1.2927   -0.2383   -4.4807 H         1 <0>         0.1432
     36 H9         -3.8186   -1.1802   -0.3205 H         1 <0>         0.1411
     37 H10        -5.8568   -1.6618   -1.6714 H         1 <0>         0.1478
     38 H11        -5.5194   -1.3330   -5.9427 H         1 <0>         0.1630
     39 H12        -7.8634   -2.1412   -3.1002 H         1 <0>         0.1410
     40 H13        -7.2211   -1.7981   -6.0781 H         1 <0>         0.1330
     41 H14        -9.2366   -2.2878   -7.3644 H         1 <0>         0.4033
     42 H15       -10.7032   -2.7339   -6.6768 H         1 <0>         0.4048
@<TRIPOS>BOND
     1    1    2 1
     2    1   28 1
     3    1   29 1
     4    1   30 1
     5    2    3 1
     6    2   12 1
     7    2   31 1
     8    3    8 ar
     9    3    4 ar
    10    4    5 ar
    11    4   11 1
    12    5    6 ar
    13    5   32 1
    14    6    7 ar
    15    6   33 1
    16    7    8 ar
    17    7   10 1
    18    8    9 1
    19   12   13 1
    20   13   18 ar
    21   13   14 ar
    22   14   15 ar
    23   14   34 1
    24   15   16 ar
    25   15   35 1
    26   16   22 ar
    27   16   17 ar
    28   17   18 ar
    29   17   19 ar
    30   18   36 1
    31   19   20 ar
    32   19   37 1
    33   20   21 ar
    34   20   23 1
    35   21   22 ar
    36   21   38 1
    37   23   24 2
    38   23   39 1
    39   24   25 1
    40   24   40 1
    41   25   26 2
    42   25   27 am
    43   27   41 1
    44   27   42 1
@<TRIPOS>MOLECULE
CHEMBL566010
   60    64     0     0     0
SMALL
USER_CHARGES

@<TRIPOS>ATOM
      1 C1          1.0490    1.2202    3.5130 C.ar      1 <0>        -0.1338
      2 C2          1.5199   -0.0011    3.9588 C.ar      1 <0>        -0.0997
      3 C3          2.5283   -0.6471    3.2708 C.ar      1 <0>        -0.1211
      4 C4          3.0691   -0.0689    2.1298 C.ar      1 <0>         0.1444
      5 C5          2.5937    1.1575    1.6844 C.ar      1 <0>        -0.1460
      6 C6          1.5854    1.7986    2.3772 C.ar      1 <0>        -0.1008
      7 N1          4.0911   -0.7205    1.4308 N.am      1 <0>        -0.6756
      8 C7          4.1207   -2.0670    1.3803 C.2       1 <0>         0.5107
      9 O1          3.2120   -2.7120    1.8592 O.2       1 <0>        -0.4706
     10 C8          5.2828   -2.7712    0.7287 C.3       1 <0>        -0.1632
     11 C9          5.0737   -4.2617    0.8047 C.2       1 <0>         0.5140
     12 O2          4.0787   -4.7082    1.3357 O.2       1 <0>        -0.4631
     13 N2          5.9921   -5.0986    0.2826 N.am      1 <0>        -0.6757
     14 C10         5.7508   -6.4783    0.2616 C.ar      1 <0>         0.1929
     15 C11         4.4568   -6.9546    0.0972 C.ar      1 <0>        -0.1185
     16 C12         4.2183   -8.3147    0.0770 C.ar      1 <0>        -0.0643
     17 C13         5.2709   -9.2063    0.2204 C.ar      1 <0>         0.0207
     18 C14         6.5662   -8.7315    0.3851 C.ar      1 <0>         0.1215
     19 C15         6.8061   -7.3699    0.3996 C.ar      1 <0>        -0.1731
     20 F1          7.5916   -9.5999    0.5253 F         1 <0>        -0.1215
     21 O3          5.0351  -10.5455    0.2004 O.3       1 <0>        -0.2354
     22 C16         4.9179  -11.1897    1.3893 C.ar      1 <0>         0.2067
     23 C17         4.9243  -10.4869    2.5900 C.ar      1 <0>        -0.2255
     24 C18         4.8011  -11.2007    3.7730 C.ar      1 <0>         0.1593
     25 N3          4.6799  -12.5019    3.7974 N.ar      1 <0>        -0.4671
     26 C19         4.6651  -13.2558    2.6733 C.ar      1 <0>         0.1400
     27 C20         4.7822  -12.5683    1.4453 C.ar      1 <0>        -0.2023
     28 S1          4.7133  -13.8629    0.2342 S.3       1 <0>         0.1279
     29 C21         4.5284  -15.2458    1.3471 C.2       1 <0>        -0.1669
     30 C22         4.5417  -14.6528    2.5714 C.2       1 <0>        -0.0592
     31 C23         4.4051  -16.6756    1.0213 C.2       1 <0>         0.6170
     32 O4          4.2845  -17.4942    1.9127 O.2       1 <0>        -0.5130
     33 N4          4.4258  -17.0780   -0.2648 N.am      1 <0>        -0.6113
     34 C24         4.5715  -16.2000   -1.4351 C.3       1 <0>         0.0837
     35 C25         4.5139  -17.0961   -2.6902 C.3       1 <0>        -0.1275
     36 C26         3.7723  -18.3603   -2.1808 C.3       1 <0>        -0.1344
     37 C27         4.3124  -18.4720   -0.7309 C.3       1 <0>         0.1063
     38 H1          0.2576    1.7214    4.0505 H         1 <0>         0.1242
     39 H2          1.0989   -0.4502    4.8462 H         1 <0>         0.1264
     40 H3          2.8961   -1.6006    3.6199 H         1 <0>         0.1340
     41 H4          3.0125    1.6099    0.7977 H         1 <0>         0.1253
     42 H5          1.2153    2.7524    2.0313 H         1 <0>         0.1269
     43 H6          4.7783   -0.2031    0.9825 H         1 <0>         0.4107
     44 H7          5.3528   -2.4670   -0.3157 H         1 <0>         0.1325
     45 H8          6.2047   -2.5068    1.2467 H         1 <0>         0.1324
     46 H9          6.8202   -4.7455   -0.0787 H         1 <0>         0.4162
     47 H10         3.6365   -6.2610   -0.0146 H         1 <0>         0.1537
     48 H11         3.2115   -8.6843   -0.0502 H         1 <0>         0.1499
     49 H12         7.8133   -7.0000    0.5231 H         1 <0>         0.1507
     50 H13         5.0233   -9.4115    2.6007 H         1 <0>         0.1512
     51 H14         4.8057  -10.6613    4.7086 H         1 <0>         0.1704
     52 H15         4.4430  -15.2532    3.4637 H         1 <0>         0.1615
     53 H16         3.7572  -15.4759   -1.4589 H         1 <0>         0.0784
     54 H17         5.5298  -15.6822   -1.3930 H         1 <0>         0.0785
     55 H18         3.9474  -16.6107   -3.4849 H         1 <0>         0.0883
     56 H19         5.5182  -17.3489   -3.0300 H         1 <0>         0.0821
     57 H20         2.6928  -18.2097   -2.1887 H         1 <0>         0.0799
     58 H21         4.0472  -19.2372   -2.7670 H         1 <0>         0.0903
     59 H22         5.2895  -18.9551   -0.7237 H         1 <0>         0.0757
     60 H23         3.6104  -19.0249   -0.1066 H         1 <0>         0.0851
@<TRIPOS>BOND
     1    1    6 ar
     2    1    2 ar
     3    1   38 1
     4    2    3 ar
     5    2   39 1
     6    3    4 ar
     7    3   40 1
     8    4    5 ar
     9    4    7 1
    10    5    6 ar
    11    5   41 1
    12    6   42 1
    13    7    8 am
    14    7   43 1
    15    8    9 2
    16    8   10 1
    17   10   11 1
    18   10   44 1
    19   10   45 1
    20   11   12 2
    21   11   13 am
    22   13   14 1
    23   13   46 1
    24   14   19 ar
    25   14   15 ar
    26   15   16 ar
    27   15   47 1
    28   16   17 ar
    29   16   48 1
    30   17   18 ar
    31   17   21 1
    32   18   19 ar
    33   18   20 1
    34   19   49 1
    35   21   22 1
    36   22   27 ar
    37   22   23 ar
    38   23   24 ar
    39   23   50 1
    40   24   25 ar
    41   24   51 1
    42   25   26 ar
    43   26   30 1
    44   26   27 ar
    45   27   28 1
    46   28   29 1
    47   29   30 2
    48   29   31 1
    49   30   52 1
    50   31   32 2
    51   31   33 am
    52   33   37 1
    53   33   34 1
    54   34   35 1
    55   34   53 1
    56   34   54 1
    57   35   36 1
    58   35   55 1
    59   35   56 1
    60   36   37 1
    61   36   57 1
    62   36   58 1
    63   37   59 1
    64   37   60 1
@<TRIPOS>MOLECULE
CHEMBL453850
   53    57     0     0     0
SMALL
USER_CHARGES

@<TRIPOS>ATOM
      1 C1          0.1386    1.2268   -1.0629 C.2       1 <0>        -0.2396
      2 C2          1.3694    1.8811   -1.1121 C.2       1 <0>         0.0758
      3 C3          2.4845    1.2641   -0.5486 C.2       1 <0>        -0.2877
      4 C4          2.3288   -0.0100    0.0564 C.2       1 <0>         0.5366
      5 O1          3.2885   -0.5706    0.5567 O.2       1 <0>        -0.5449
      6 N1          1.1173   -0.5975    0.0765 N.am      1 <0>        -0.4838
      7 C5          0.0378    0.0082   -0.4732 C.2       1 <0>         0.1718
      8 C6          0.9647   -1.9132    0.7025 C.3       1 <0>         0.1303
      9 C7          0.6299   -1.7394    2.1615 C.ar      1 <0>        -0.1363
     10 C8          1.6436   -1.6616    3.0983 C.ar      1 <0>        -0.0586
     11 C9          1.3378   -1.5018    4.4365 C.ar      1 <0>        -0.1556
     12 C10         0.0155   -1.4197    4.8389 C.ar      1 <0>         0.1139
     13 C11        -0.9989   -1.4977    3.8998 C.ar      1 <0>        -0.1568
     14 C12        -0.6905   -1.6522    2.5616 C.ar      1 <0>        -0.0724
     15 F1         -0.2846   -1.2639    6.1469 F         1 <0>        -0.1348
     16 C13         3.7996    1.9215   -0.5808 C.2       1 <0>         0.5845
     17 O2          3.9446    2.9621   -1.1943 O.2       1 <0>        -0.5232
     18 N2          4.8441    1.3713    0.0693 N.am      1 <0>        -0.6617
     19 C14         6.0547    2.0681    0.1653 C.ar      1 <0>         0.1932
     20 C15         6.0535    3.4545    0.2468 C.ar      1 <0>        -0.1230
     21 C16         7.2473    4.1423    0.3415 C.ar      1 <0>        -0.0668
     22 C17         8.4486    3.4493    0.3552 C.ar      1 <0>         0.0224
     23 C18         8.4517    2.0623    0.2732 C.ar      1 <0>         0.1198
     24 C19         7.2565    1.3729    0.1847 C.ar      1 <0>        -0.1745
     25 F2          9.6219    1.3872    0.2861 F         1 <0>        -0.1233
     26 O3          9.6237    4.1274    0.4485 O.3       1 <0>        -0.2356
     27 C20        10.3171    4.3603   -0.6942 C.ar      1 <0>         0.2101
     28 C21         9.7902    4.0197   -1.9339 C.ar      1 <0>        -0.2828
     29 C22        10.5279    4.2735   -3.0767 C.ar      1 <0>         0.1776
     30 N3         11.7199    4.8307   -3.0202 N.ar      1 <0>        -0.5183
     31 C23        12.2761    5.1782   -1.8655 C.ar      1 <0>         0.3158
     32 C24        11.5854    4.9574   -0.6612 C.ar      1 <0>        -0.1774
     33 C25        12.4553    5.4510    0.4073 C.2       1 <0>        -0.1744
     34 C26        13.5649    5.9239   -0.1815 C.2       1 <0>         0.0507
     35 N4         13.4770    5.7604   -1.5390 N.pl3     1 <0>        -0.5789
     36 H1         14.1578    6.0266   -2.1766 H         1 <0>         0.4228
     37 H2         -0.7368    1.6926   -1.4907 H         1 <0>         0.1603
     38 H3          1.4568    2.8506   -1.5799 H         1 <0>         0.1543
     39 H4         -0.9211   -0.4876   -0.4419 H         1 <0>         0.1722
     40 H5          0.1617   -2.4599    0.2081 H         1 <0>         0.1092
     41 H6          1.8962   -2.4711    0.6074 H         1 <0>         0.1178
     42 H7          2.6749   -1.7261    2.7842 H         1 <0>         0.1429
     43 H8          2.1299   -1.4414    5.1681 H         1 <0>         0.1401
     44 H9         -2.0307   -1.4340    4.2126 H         1 <0>         0.1401
     45 H10        -1.4815   -1.7087    1.8284 H         1 <0>         0.1345
     46 H11         4.7572    0.4925    0.4706 H         1 <0>         0.4281
     47 H12         5.1185    3.9951    0.2359 H         1 <0>         0.1503
     48 H13         7.2455    5.2204    0.4045 H         1 <0>         0.1476
     49 H14         7.2579    0.2945    0.1257 H         1 <0>         0.1479
     50 H15         8.8149    3.5612   -2.0048 H         1 <0>         0.1398
     51 H16        10.1160    4.0078   -4.0391 H         1 <0>         0.1657
     52 H17        12.2448    5.4373    1.4665 H         1 <0>         0.1530
     53 H18        14.4054    6.3599    0.3379 H         1 <0>         0.1811
@<TRIPOS>BOND
     1    1    7 2
     2    1    2 1
     3    1   37 1
     4    2    3 2
     5    2   38 1
     6    3    4 1
     7    3   16 1
     8    4    5 2
     9    4    6 am
    10    6    7 1
    11    6    8 1
    12    7   39 1
    13    8    9 1
    14    8   40 1
    15    8   41 1
    16    9   14 ar
    17    9   10 ar
    18   10   11 ar
    19   10   42 1
    20   11   12 ar
    21   11   43 1
    22   12   13 ar
    23   12   15 1
    24   13   14 ar
    25   13   44 1
    26   14   45 1
    27   16   17 2
    28   16   18 am
    29   18   19 1
    30   18   46 1
    31   19   24 ar
    32   19   20 ar
    33   20   21 ar
    34   20   47 1
    35   21   22 ar
    36   21   48 1
    37   22   23 ar
    38   22   26 1
    39   23   24 ar
    40   23   25 1
    41   24   49 1
    42   26   27 1
    43   27   32 ar
    44   27   28 ar
    45   28   29 ar
    46   28   50 1
    47   29   30 ar
    48   29   51 1
    49   30   31 ar
    50   31   35 1
    51   31   32 ar
    52   32   33 1
    53   33   34 2
    54   33   52 1
    55   34   35 1
    56   34   53 1
    57   35   36 1
@<TRIPOS>MOLECULE
CHEMBL454101
   49    53     0     0     0
SMALL
USER_CHARGES

@<TRIPOS>ATOM
      1 C1          1.3859    0.7271   -2.9997 C.ar      1 <0>        -0.0621
      2 C2          0.8429    1.8952   -2.4828 C.ar      1 <0>        -0.1523
      3 C3          0.3283    1.8920   -1.2009 C.ar      1 <0>         0.1203
      4 N1          0.3475    0.7962   -0.4672 N.ar      1 <0>        -0.4698
      5 C4          0.8564   -0.3366   -0.9244 C.ar      1 <0>         0.3041
      6 C5          1.3914   -0.4063   -2.2051 C.ar      1 <0>        -0.1401
      7 N2          0.8561   -1.4726   -0.1120 N.am      1 <0>        -0.4412
      8 C6          1.9495   -1.7562    0.6402 C.2       1 <0>         0.1787
      9 C7          1.9869   -2.8507    1.4417 C.2       1 <0>        -0.2325
     10 C8          0.8897   -3.7101    1.5051 C.2       1 <0>         0.0801
     11 C9         -0.2366   -3.4252    0.7355 C.2       1 <0>        -0.2828
     12 C10        -0.2312   -2.2665   -0.0832 C.2       1 <0>         0.5430
     13 O1         -1.2059   -1.9930   -0.7619 O.2       1 <0>        -0.5314
     14 C11        -1.4124   -4.3076    0.7751 C.2       1 <0>         0.5873
     15 O2         -1.4898   -5.1803    1.6192 O.2       1 <0>        -0.5216
     16 N3         -2.4042   -4.1494   -0.1236 N.am      1 <0>        -0.6583
     17 C12        -3.5742   -4.9110   -0.0163 C.ar      1 <0>         0.1845
     18 C13        -3.5195   -6.1989    0.5006 C.ar      1 <0>        -0.1228
     19 C14        -4.6732   -6.9507    0.6061 C.ar      1 <0>        -0.0679
     20 C15        -5.8874   -6.4203    0.1965 C.ar      1 <0>         0.0272
     21 C16        -5.9439   -5.1320   -0.3208 C.ar      1 <0>         0.1081
     22 C17        -4.7901   -4.3768   -0.4214 C.ar      1 <0>        -0.1703
     23 F1         -7.1266   -4.6156   -0.7206 F         1 <0>        -0.1237
     24 O3         -7.0229   -7.1614    0.3009 O.3       1 <0>        -0.2343
     25 C18        -7.6181   -7.5795   -0.8444 C.ar      1 <0>         0.2109
     26 C19        -7.0098   -7.3883   -2.0789 C.ar      1 <0>        -0.2827
     27 C20        -7.6483   -7.8293   -3.2245 C.ar      1 <0>         0.1776
     28 N4         -8.8207   -8.4273   -3.1756 N.ar      1 <0>        -0.5180
     29 C21        -9.4514   -8.6384   -2.0262 C.ar      1 <0>         0.3161
     30 C22        -8.8634   -8.2234   -0.8185 C.ar      1 <0>        -0.1769
     31 C23        -9.7950   -8.6050    0.2439 C.2       1 <0>        -0.1744
     32 C24       -10.8389   -9.2038   -0.3504 C.2       1 <0>         0.0510
     33 N5        -10.6527   -9.2242   -1.7077 N.pl3     1 <0>        -0.5789
     34 H1        -11.2729   -9.6056   -2.3486 H         1 <0>         0.4229
     35 H2          1.7907    0.7019   -4.0006 H         1 <0>         0.1493
     36 H3          0.8233    2.7972   -3.0765 H         1 <0>         0.1486
     37 H4         -0.0950    2.7985   -0.7941 H         1 <0>         0.1696
     38 H5          1.8057   -1.3323   -2.5756 H         1 <0>         0.1433
     39 H6          2.8056   -1.0991    0.5999 H         1 <0>         0.1721
     40 H7          2.8678   -3.0570    2.0314 H         1 <0>         0.1655
     41 H8          0.9130   -4.5830    2.1406 H         1 <0>         0.1584
     42 H9         -2.3076   -3.5079   -0.8447 H         1 <0>         0.4266
     43 H10        -2.5744   -6.6128    0.8198 H         1 <0>         0.1617
     44 H11        -4.6298   -7.9524    1.0075 H         1 <0>         0.1488
     45 H12        -4.8339   -3.3737   -0.8193 H         1 <0>         0.1476
     46 H13        -6.0487   -6.9001   -2.1436 H         1 <0>         0.1385
     47 H14        -7.1735   -7.6791   -4.1829 H         1 <0>         0.1655
     48 H15        -9.6669   -8.4369    1.3030 H         1 <0>         0.1533
     49 H16       -11.7011   -9.6020    0.1637 H         1 <0>         0.1814
@<TRIPOS>BOND
     1    1    6 ar
     2    1    2 ar
     3    1   35 1
     4    2    3 ar
     5    2   36 1
     6    3    4 ar
     7    3   37 1
     8    4    5 ar
     9    5    6 ar
    10    5    7 1
    11    6   38 1
    12    7   12 am
    13    7    8 1
    14    8    9 2
    15    8   39 1
    16    9   10 1
    17    9   40 1
    18   10   11 2
    19   10   41 1
    20   11   12 1
    21   11   14 1
    22   12   13 2
    23   14   15 2
    24   14   16 am
    25   16   17 1
    26   16   42 1
    27   17   22 ar
    28   17   18 ar
    29   18   19 ar
    30   18   43 1
    31   19   20 ar
    32   19   44 1
    33   20   21 ar
    34   20   24 1
    35   21   22 ar
    36   21   23 1
    37   22   45 1
    38   24   25 1
    39   25   30 ar
    40   25   26 ar
    41   26   27 ar
    42   26   46 1
    43   27   28 ar
    44   27   47 1
    45   28   29 ar
    46   29   33 1
    47   29   30 ar
    48   30   31 1
    49   31   32 2
    50   31   48 1
    51   32   33 1
    52   32   49 1
    53   33   34 1
@<TRIPOS>MOLECULE
CHEMBL461120
   62    65     0     0     0
SMALL
USER_CHARGES

@<TRIPOS>ATOM
      1 C1         -1.4910    0.0716   -1.7261 C.3       1 <0>         0.0229
      2 O1         -0.6645   -0.5905   -0.7667 O.3       1 <0>        -0.2998
      3 C2          0.6807   -0.5002   -0.9437 C.ar      1 <0>         0.1182
      4 C3          1.1772    0.2063   -2.0008 C.ar      1 <0>        -0.1584
      5 C4          2.5650    0.2998   -2.1830 C.ar      1 <0>        -0.1045
      6 C5          3.1153    1.0229   -3.2651 C.ar      1 <0>         0.1780
      7 C6          4.4936    1.0709   -3.3794 C.ar      1 <0>        -0.2665
      8 C7          5.2855    0.4182   -2.4432 C.ar      1 <0>         0.1632
      9 N1          4.7640   -0.2507   -1.4417 N.ar      1 <0>        -0.4885
     10 C8          3.4396   -0.3386   -1.2702 C.ar      1 <0>         0.1725
     11 C9          2.8983   -1.0587   -0.1924 C.ar      1 <0>        -0.1799
     12 C10         1.5441   -1.1289   -0.0352 C.ar      1 <0>         0.1541
     13 O2          1.0258   -1.8218    1.0126 O.3       1 <0>        -0.2983
     14 C11         1.9551   -2.4407    1.9044 C.3       1 <0>         0.0202
     15 O3          2.3174    1.6500   -4.1642 O.3       1 <0>        -0.2384
     16 C12         2.9110    2.4004   -5.1302 C.ar      1 <0>         0.0085
     17 C13         2.9344    3.7893   -5.0290 C.ar      1 <0>        -0.0416
     18 C14         3.5490    4.5130   -6.0348 C.ar      1 <0>        -0.1800
     19 C15         4.1191    3.8347   -7.1060 C.ar      1 <0>         0.3667
     20 N2          4.0776    2.5138   -7.1692 N.ar      1 <0>        -0.4580
     21 C16         3.5050    1.7924   -6.2245 C.ar      1 <0>         0.1351
     22 N3          4.7418    4.5551   -8.1263 N.am      1 <0>        -0.6560
     23 C17         5.2001    3.9151   -9.2203 C.2       1 <0>         0.6838
     24 O4          5.1609    2.7016   -9.2755 O.2       1 <0>        -0.4482
     25 N4          5.7020    4.6207  -10.2531 N.am      1 <0>        -0.6756
     26 C18         6.1603    3.9806  -11.3471 C.2       1 <0>         0.5123
     27 O5          6.1211    2.7702  -11.4021 O.2       1 <0>        -0.4489
     28 C19         6.7214    4.7696  -12.5019 C.3       1 <0>        -0.0284
     29 N5          7.1498    3.8479  -13.5625 N.4       1 <0>        -0.3717
     30 C20         8.2584    3.0206  -13.0714 C.3       1 <0>        -0.0212
     31 C21         8.6549    2.0037  -14.1438 C.3       1 <0>        -0.1423
     32 C22         9.0928    2.7482  -15.4085 C.3       1 <0>        -0.1401
     33 C23         7.9553    3.6640  -15.8694 C.3       1 <0>        -0.1459
     34 C24         7.5846    4.6194  -14.7331 C.3       1 <0>        -0.0062
     35 H1         -1.2664    1.1382   -1.7247 H         1 <0>         0.0578
     36 H2         -1.2977   -0.3390   -2.7172 H         1 <0>         0.0581
     37 H3         -2.5393   -0.0793   -1.4684 H         1 <0>         0.1063
     38 H4          0.5050    0.6906   -2.6936 H         1 <0>         0.1490
     39 H5          4.9516    1.6134   -4.1932 H         1 <0>         0.1355
     40 H6          6.3600    0.4621   -2.5424 H         1 <0>         0.1624
     41 H7          3.5516   -1.5516    0.5123 H         1 <0>         0.1557
     42 H8          2.5659   -3.1561    1.3536 H         1 <0>         0.0616
     43 H9          2.5974   -1.6788    2.3461 H         1 <0>         0.0616
     44 H10         1.4110   -2.9594    2.6936 H         1 <0>         0.1077
     45 H11         2.4828    4.2896   -4.1851 H         1 <0>         0.1556
     46 H12         3.5852    5.5914   -5.9887 H         1 <0>         0.1510
     47 H13         3.4950    0.7156   -6.3074 H         1 <0>         0.1711
     48 H14         4.8448    5.5164   -8.0481 H         1 <0>         0.4216
     49 H15         5.7333    5.5892  -10.2091 H         1 <0>         0.4195
     50 H16         5.9547    5.4398  -12.8908 H         1 <0>         0.1682
     51 H17         7.5761    5.3541  -12.1614 H         1 <0>         0.1669
     52 H18         9.1125    3.6577  -12.8418 H         1 <0>         0.1276
     53 H19         7.9463    2.4939  -12.1696 H         1 <0>         0.1445
     54 H20         9.4793    1.3917  -13.7780 H         1 <0>         0.1133
     55 H21         7.8015    1.3659  -14.3740 H         1 <0>         0.0897
     56 H22         9.9774    3.3468  -15.1912 H         1 <0>         0.0821
     57 H23         9.3223    2.0284  -16.1941 H         1 <0>         0.0954
     58 H24         8.2795    4.2387  -16.7370 H         1 <0>         0.1153
     59 H25         7.0873    3.0607  -16.1354 H         1 <0>         0.0894
     60 H26         6.7751    5.2730  -15.0580 H         1 <0>         0.1332
     61 H27         8.4531    5.2224  -14.4681 H         1 <0>         0.1323
     62 H28         6.3775    3.2524  -13.8214 H         1 <0>         0.4306
@<TRIPOS>BOND
     1    1    2 1
     2    1   35 1
     3    1   36 1
     4    1   37 1
     5    2    3 1
     6    3   12 ar
     7    3    4 ar
     8    4    5 ar
     9    4   38 1
    10    5   10 ar
    11    5    6 ar
    12    6    7 ar
    13    6   15 1
    14    7    8 ar
    15    7   39 1
    16    8    9 ar
    17    8   40 1
    18    9   10 ar
    19   10   11 ar
    20   11   12 ar
    21   11   41 1
    22   12   13 1
    23   13   14 1
    24   14   42 1
    25   14   43 1
    26   14   44 1
    27   15   16 1
    28   16   21 ar
    29   16   17 ar
    30   17   18 ar
    31   17   45 1
    32   18   19 ar
    33   18   46 1
    34   19   20 ar
    35   19   22 1
    36   20   21 ar
    37   21   47 1
    38   22   23 am
    39   22   48 1
    40   23   24 2
    41   23   25 am
    42   25   26 am
    43   25   49 1
    44   26   27 2
    45   26   28 1
    46   28   29 1
    47   28   50 1
    48   28   51 1
    49   29   34 1
    50   29   30 1
    51   29   62 1
    52   30   31 1
    53   30   52 1
    54   30   53 1
    55   31   32 1
    56   31   54 1
    57   31   55 1
    58   32   33 1
    59   32   56 1
    60   32   57 1
    61   33   34 1
    62   33   58 1
    63   33   59 1
    64   34   60 1
    65   34   61 1
@<TRIPOS>MOLECULE
CHEMBL461120__1
   63    66     0     0     0
SMALL
USER_CHARGES

@<TRIPOS>ATOM
      1 C1          2.2437    0.1151   -0.4252 C.3       1 <0>         0.0147
      2 O1          1.0101   -0.5709   -0.2025 O.3       1 <0>        -0.2842
      3 C2          0.4897   -0.5138    1.0524 C.ar      1 <0>         0.1394
      4 C3          1.1461    0.1838    2.0250 C.ar      1 <0>        -0.1406
      5 C4          0.6088    0.2430    3.3196 C.ar      1 <0>        -0.0869
      6 C5          1.2598    0.9558    4.3515 C.ar      1 <0>         0.2770
      7 C6          0.6693    0.9697    5.6029 C.ar      1 <0>        -0.2664
      8 C7         -0.5271    0.2940    5.8074 C.ar      1 <0>         0.2271
      9 N1         -1.1235   -0.3651    4.8419 N.ar      1 <0>        -0.4779
     10 C8         -0.6087   -0.4204    3.6077 C.ar      1 <0>         0.1823
     11 C9         -1.2604   -1.1304    2.5857 C.ar      1 <0>        -0.2360
     12 C10        -0.7187   -1.1671    1.3332 C.ar      1 <0>         0.2195
     13 O2         -1.3564   -1.8505    0.3468 O.3       1 <0>        -0.2753
     14 C11        -2.5835   -2.4956    0.6932 C.3       1 <0>         0.0108
     15 O3          2.4275    1.6060    4.1227 O.3       1 <0>        -0.2043
     16 C12         2.9557    2.3446    5.1346 C.ar      1 <0>        -0.0380
     17 C13         2.8347    3.7321    5.1320 C.ar      1 <0>        -0.0250
     18 C14         3.3874    4.4436    6.1814 C.ar      1 <0>        -0.1803
     19 C15         4.0408    3.7550    7.1971 C.ar      1 <0>         0.3919
     20 N2          4.1368    2.4358    7.1663 N.ar      1 <0>        -0.4568
     21 C16         3.6160    1.7256    6.1838 C.ar      1 <0>         0.1490
     22 N3          4.6020    4.4631    8.2608 N.am      1 <0>        -0.6567
     23 C17         5.3304    3.8156    9.1917 C.2       1 <0>         0.6872
     24 O4          5.4167    2.6037    9.1610 O.2       1 <0>        -0.4477
     25 N4          5.9631    4.5120   10.1567 N.am      1 <0>        -0.6759
     26 C18         6.6915    3.8645   11.0876 C.2       1 <0>         0.5141
     27 O5          6.7775    2.6556   11.0570 O.2       1 <0>        -0.4473
     28 C19         7.3989    4.6432   12.1666 C.3       1 <0>        -0.0283
     29 N5          8.1177    3.7147   13.0493 N.4       1 <0>        -0.3720
     30 C20         7.1513    2.8581   13.7471 C.3       1 <0>        -0.0206
     31 C21         7.8977    1.8353   14.6063 C.3       1 <0>        -0.1423
     32 C22         8.7625    2.5730   15.6325 C.3       1 <0>        -0.1408
     33 C23         9.7159    3.5187   14.8964 C.3       1 <0>        -0.1463
     34 C24         8.9021    4.4791   14.0264 C.3       1 <0>        -0.0066
     35 H1          3.0118   -0.2968    0.2294 H         1 <0>         0.0674
     36 H2          2.5467   -0.0103   -1.4647 H         1 <0>         0.1201
     37 H3          2.1135    1.1757   -0.2101 H         1 <0>         0.0670
     38 H4          2.0745    0.6872    1.7991 H         1 <0>         0.1730
     39 H5          1.1368    1.5033    6.4172 H         1 <0>         0.1784
     40 H6         -0.9788    0.3112    6.7883 H         1 <0>         0.2119
     41 H7         -2.1896   -1.6419    2.7892 H         1 <0>         0.1729
     42 H8         -3.2988   -1.7516    1.0437 H         1 <0>         0.0704
     43 H9         -2.9870   -3.0033   -0.1829 H         1 <0>         0.1236
     44 H10        -2.4006   -3.2241    1.4831 H         1 <0>         0.0704
     45 H11         2.3217    4.2406    4.3291 H         1 <0>         0.1614
     46 H12         3.3125    5.5206    6.2113 H         1 <0>         0.1596
     47 H13         3.7096    0.6497    6.1951 H         1 <0>         0.1749
     48 H14         4.4679    5.4212    8.3300 H         1 <0>         0.4259
     49 H15         5.8942    5.4792   10.1812 H         1 <0>         0.4219
     50 H16         8.1084    5.3337   11.7106 H         1 <0>         0.1697
     51 H17         6.6678    5.2048   12.7481 H         1 <0>         0.1682
     52 H18         6.5157    3.4727   14.3846 H         1 <0>         0.1279
     53 H19         6.5344    2.3363   13.0155 H         1 <0>         0.1424
     54 H20         7.1784    1.2015   15.1249 H         1 <0>         0.1134
     55 H21         8.5334    1.2200   13.9697 H         1 <0>         0.0896
     56 H22         8.1230    3.1485   16.3017 H         1 <0>         0.0828
     57 H23         9.3394    1.8504   16.2097 H         1 <0>         0.0967
     58 H24        10.2963    4.0881   15.6224 H         1 <0>         0.1169
     59 H25        10.3894    2.9383   14.2658 H         1 <0>         0.0898
     60 H26         9.5779    5.1540   13.5011 H         1 <0>         0.1341
     61 H27         8.2292    5.0592   14.6580 H         1 <0>         0.1331
     62 H28         8.7371    3.1397   12.4982 H         1 <0>         0.4306
     63 H29        -1.9580   -0.8235    5.0273 H         1 <0>         0.4491
@<TRIPOS>BOND
     1    1    2 1
     2    1   35 1
     3    1   36 1
     4    1   37 1
     5    2    3 1
     6    3   12 ar
     7    3    4 ar
     8    4    5 ar
     9    4   38 1
    10    5   10 ar
    11    5    6 ar
    12    6    7 ar
    13    6   15 1
    14    7    8 ar
    15    7   39 1
    16    8    9 ar
    17    8   40 1
    18    9   10 ar
    19    9   63 1
    20   10   11 ar
    21   11   12 ar
    22   11   41 1
    23   12   13 1
    24   13   14 1
    25   14   42 1
    26   14   43 1
    27   14   44 1
    28   15   16 1
    29   16   21 ar
    30   16   17 ar
    31   17   18 ar
    32   17   45 1
    33   18   19 ar
    34   18   46 1
    35   19   20 ar
    36   19   22 1
    37   20   21 ar
    38   21   47 1
    39   22   23 am
    40   22   48 1
    41   23   24 2
    42   23   25 am
    43   25   26 am
    44   25   49 1
    45   26   27 2
    46   26   28 1
    47   28   29 1
    48   28   50 1
    49   28   51 1
    50   29   34 1
    51   29   30 1
    52   29   62 1
    53   30   31 1
    54   30   52 1
    55   30   53 1
    56   31   32 1
    57   31   54 1
    58   31   55 1
    59   32   33 1
    60   32   56 1
    61   32   57 1
    62   33   34 1
    63   33   58 1
    64   33   59 1
    65   34   60 1
    66   34   61 1
@<TRIPOS>MOLECULE
CHEMBL602704
   60    64     0     0     0
SMALL
USER_CHARGES

@<TRIPOS>ATOM
      1 C1          1.4874   -1.7304    2.6342 C.3       1 <0>         0.0699
      2 N1          0.4398   -2.1412    1.6962 N.pl3     1 <0>        -0.4615
      3 C2          0.6024   -2.9443    0.6029 C.2       1 <0>        -0.0139
      4 C3         -0.6220   -3.0654    0.0211 C.2       1 <0>         0.0620
      5 N2         -1.4988   -2.3475    0.7542 N.2       1 <0>        -0.4688
      6 C4         -0.8717   -1.7990    1.7564 C.2       1 <0>         0.1961
      7 C5         -0.9353   -3.8434   -1.1964 C.2       1 <0>        -0.0137
      8 C6         -2.1319   -3.9936   -1.8205 C.2       1 <0>        -0.1341
      9 C7         -2.2254   -4.7837   -2.9815 C.ar      1 <0>         0.1636
     10 C8         -1.0157   -5.3730   -3.4096 C.ar      1 <0>        -0.2093
     11 S1          0.1674   -4.8106   -2.2131 S.3       1 <0>         0.1009
     12 C9         -0.9524   -6.1747   -4.5340 C.ar      1 <0>         0.2119
     13 C10        -2.1298   -6.3920   -5.2482 C.ar      1 <0>        -0.2394
     14 C11        -3.2942   -5.7960   -4.7950 C.ar      1 <0>         0.1582
     15 N3         -3.3254   -5.0408   -3.7261 N.ar      1 <0>        -0.4794
     16 O1          0.2199   -6.7325   -4.9307 O.3       1 <0>        -0.2342
     17 C12         0.1943   -7.5890   -5.9872 C.ar      1 <0>        -0.0133
     18 C13         0.1135   -8.9561   -5.7694 C.ar      1 <0>        -0.0403
     19 C14         0.0874   -9.8267   -6.8414 C.ar      1 <0>        -0.1769
     20 C15         0.1427   -9.3336   -8.1386 C.ar      1 <0>         0.2536
     21 C16         0.2237   -7.9649   -8.3577 C.ar      1 <0>        -0.2118
     22 C17         0.2435   -7.0936   -7.2841 C.ar      1 <0>         0.1481
     23 F1          0.3167   -5.7614   -7.4963 F         1 <0>        -0.1226
     24 N4          0.1172  -10.2158   -9.2241 N.pl3     1 <0>        -0.7161
     25 C18         0.1755   -9.6954  -10.5924 C.3       1 <0>         0.1288
     26 C19        -0.4702  -10.7005  -11.5482 C.3       1 <0>        -0.1573
     27 C20        -1.9382  -10.8239  -11.2308 C.2       1 <0>         0.5172
     28 O2         -2.4205  -10.1720  -10.3288 O.2       1 <0>        -0.4982
     29 N5         -2.7152  -11.6586  -11.9492 N.am      1 <0>        -0.6701
     30 C21        -4.0970  -11.6956  -11.7253 C.ar      1 <0>         0.1319
     31 C22        -4.7907  -12.8913  -11.8561 C.ar      1 <0>        -0.1136
     32 C23        -6.1535  -12.9256  -11.6348 C.ar      1 <0>        -0.1335
     33 C24        -6.8282  -11.7687  -11.2832 C.ar      1 <0>         0.0881
     34 C25        -6.1383  -10.5752  -11.1522 C.ar      1 <0>        -0.1327
     35 C26        -4.7744  -10.5378  -11.3666 C.ar      1 <0>        -0.0896
     36 F2         -8.1615  -11.8042  -11.0681 F         1 <0>        -0.1372
     37 C27         1.6358   -9.4764  -10.9929 C.3       1 <0>         0.4311
     38 F3          2.3250  -10.6921  -10.9266 F         1 <0>        -0.1780
     39 F4          1.6915   -8.9795  -12.2995 F         1 <0>        -0.1780
     40 F5          2.2263   -8.5573  -10.1189 F         1 <0>        -0.1706
     41 H1          1.5569   -2.4581    3.4428 H         1 <0>         0.0822
     42 H2          2.4423   -1.6760    2.1114 H         1 <0>         0.0894
     43 H3          1.2426   -0.7515    3.0464 H         1 <0>         0.0932
     44 H4          1.5239   -3.3953    0.2656 H         1 <0>         0.1824
     45 H5         -1.3226   -1.1719    2.5113 H         1 <0>         0.2144
     46 H6         -3.0117   -3.5071   -1.4259 H         1 <0>         0.1537
     47 H7         -2.1333   -7.0102   -6.1338 H         1 <0>         0.1473
     48 H8         -4.2102   -5.9600   -5.3433 H         1 <0>         0.1652
     49 H9          0.0712   -9.3403   -4.7610 H         1 <0>         0.1456
     50 H10         0.0244  -10.8913   -6.6708 H         1 <0>         0.1400
     51 H11         0.2666   -7.5808   -9.3662 H         1 <0>         0.1405
     52 H12         0.0610  -11.1719   -9.0709 H         1 <0>         0.4141
     53 H13        -0.3614   -8.7483  -10.6441 H         1 <0>         0.1355
     54 H14        -0.3482  -10.3556  -12.5750 H         1 <0>         0.1307
     55 H15         0.0095  -11.6724  -11.4320 H         1 <0>         0.1204
     56 H16        -2.3172  -12.2336  -12.6214 H         1 <0>         0.4149
     57 H17        -4.2649  -13.7937  -12.1310 H         1 <0>         0.1370
     58 H18        -6.6934  -13.8555  -11.7365 H         1 <0>         0.1414
     59 H19        -6.6664   -9.6738  -10.8783 H         1 <0>         0.1409
     60 H20        -4.2359   -9.6077  -11.2600 H         1 <0>         0.1439
@<TRIPOS>BOND
     1    1    2 1
     2    1   41 1
     3    1   42 1
     4    1   43 1
     5    2    6 1
     6    2    3 1
     7    3    4 2
     8    3   44 1
     9    4    5 1
    10    4    7 1
    11    5    6 2
    12    6   45 1
    13    7   11 1
    14    7    8 2
    15    8    9 1
    16    8   46 1
    17    9   15 ar
    18    9   10 ar
    19   10   11 1
    20   10   12 ar
    21   12   13 ar
    22   12   16 1
    23   13   14 ar
    24   13   47 1
    25   14   15 ar
    26   14   48 1
    27   16   17 1
    28   17   22 ar
    29   17   18 ar
    30   18   19 ar
    31   18   49 1
    32   19   20 ar
    33   19   50 1
    34   20   21 ar
    35   20   24 1
    36   21   22 ar
    37   21   51 1
    38   22   23 1
    39   24   25 1
    40   24   52 1
    41   25   26 1
    42   25   37 1
    43   25   53 1
    44   26   27 1
    45   26   54 1
    46   26   55 1
    47   27   28 2
    48   27   29 am
    49   29   30 1
    50   29   56 1
    51   30   35 ar
    52   30   31 ar
    53   31   32 ar
    54   31   57 1
    55   32   33 ar
    56   32   58 1
    57   33   34 ar
    58   33   36 1
    59   34   35 ar
    60   34   59 1
    61   35   60 1
    62   37   38 1
    63   37   39 1
    64   37   40 1
@<TRIPOS>MOLECULE
CHEMBL602704__1
   61    65     0     0     0
SMALL
USER_CHARGES

@<TRIPOS>ATOM
      1 C1          1.4874   -1.7304    2.6342 C.3       1 <0>         0.0541
      2 N1          0.4398   -2.1412    1.6962 N.pl3     1 <0>        -0.4063
      3 C2          0.6024   -2.9443    0.6029 C.2       1 <0>         0.0489
      4 C3         -0.6220   -3.0654    0.0211 C.2       1 <0>         0.1240
      5 N2         -1.4988   -2.3475    0.7542 N.pl3     1 <0>        -0.4714
      6 C4         -0.8717   -1.7990    1.7564 C.cat     1 <0>         0.3034
      7 C5         -0.9353   -3.8434   -1.1964 C.2       1 <0>        -0.1229
      8 C6         -2.1319   -3.9936   -1.8205 C.2       1 <0>        -0.0818
      9 C7         -2.2254   -4.7837   -2.9815 C.ar      1 <0>         0.1367
     10 C8         -1.0157   -5.3730   -3.4096 C.ar      1 <0>        -0.1940
     11 S1          0.1674   -4.8106   -2.2131 S.3       1 <0>         0.1689
     12 C9         -0.9524   -6.1747   -4.5340 C.ar      1 <0>         0.2100
     13 C10        -2.1298   -6.3920   -5.2482 C.ar      1 <0>        -0.2130
     14 C11        -3.2942   -5.7960   -4.7950 C.ar      1 <0>         0.1662
     15 N3         -3.3254   -5.0408   -3.7261 N.ar      1 <0>        -0.4706
     16 O1          0.2199   -6.7325   -4.9307 O.3       1 <0>        -0.2294
     17 C12         0.1943   -7.5890   -5.9872 C.ar      1 <0>        -0.0286
     18 C13         0.1135   -8.9561   -5.7694 C.ar      1 <0>        -0.0367
     19 C14         0.0874   -9.8267   -6.8414 C.ar      1 <0>        -0.1769
     20 C15         0.1427   -9.3336   -8.1386 C.ar      1 <0>         0.2627
     21 C16         0.2237   -7.9649   -8.3577 C.ar      1 <0>        -0.2121
     22 C17         0.2435   -7.0936   -7.2841 C.ar      1 <0>         0.1512
     23 F1          0.3167   -5.7614   -7.4963 F         1 <0>        -0.1233
     24 N4          0.1172  -10.2158   -9.2241 N.pl3     1 <0>        -0.7131
     25 C18         0.1755   -9.6954  -10.5924 C.3       1 <0>         0.1277
     26 C19        -0.4702  -10.7005  -11.5482 C.3       1 <0>        -0.1590
     27 C20        -1.9382  -10.8239  -11.2308 C.2       1 <0>         0.5189
     28 O2         -2.4205  -10.1720  -10.3288 O.2       1 <0>        -0.5032
     29 N5         -2.7152  -11.6586  -11.9492 N.am      1 <0>        -0.6685
     30 C21        -4.0970  -11.6956  -11.7253 C.ar      1 <0>         0.1304
     31 C22        -4.7907  -12.8913  -11.8561 C.ar      1 <0>        -0.1121
     32 C23        -6.1535  -12.9256  -11.6348 C.ar      1 <0>        -0.1327
     33 C24        -6.8282  -11.7687  -11.2832 C.ar      1 <0>         0.0894
     34 C25        -6.1383  -10.5752  -11.1522 C.ar      1 <0>        -0.1340
     35 C26        -4.7744  -10.5378  -11.3666 C.ar      1 <0>        -0.0899
     36 F2         -8.1615  -11.8042  -11.0681 F         1 <0>        -0.1365
     37 C27         1.6358   -9.4764  -10.9929 C.3       1 <0>         0.4319
     38 F3          2.3250  -10.6921  -10.9266 F         1 <0>        -0.1764
     39 F4          1.6915   -8.9795  -12.2995 F         1 <0>        -0.1757
     40 F5          2.2263   -8.5573  -10.1189 F         1 <0>        -0.1722
     41 H1          1.5569   -2.4581    3.4428 H         1 <0>         0.1142
     42 H2          2.4423   -1.6760    2.1114 H         1 <0>         0.1202
     43 H3          1.2426   -0.7515    3.0464 H         1 <0>         0.1190
     44 H4          1.5239   -3.3953    0.2656 H         1 <0>         0.2278
     45 H5         -1.3226   -1.1719    2.5113 H         1 <0>         0.2686
     46 H6         -3.0117   -3.5071   -1.4259 H         1 <0>         0.1489
     47 H7         -2.1333   -7.0102   -6.1338 H         1 <0>         0.1572
     48 H8         -4.2102   -5.9600   -5.3433 H         1 <0>         0.1751
     49 H9          0.0712   -9.3403   -4.7610 H         1 <0>         0.1459
     50 H10         0.0244  -10.8913   -6.6708 H         1 <0>         0.1430
     51 H11         0.2666   -7.5808   -9.3662 H         1 <0>         0.1434
     52 H12         0.0610  -11.1719   -9.0709 H         1 <0>         0.4161
     53 H13        -0.3614   -8.7483  -10.6441 H         1 <0>         0.1362
     54 H14        -0.3482  -10.3556  -12.5750 H         1 <0>         0.1326
     55 H15         0.0095  -11.6724  -11.4320 H         1 <0>         0.1217
     56 H16        -2.3172  -12.2336  -12.6214 H         1 <0>         0.4160
     57 H17        -4.2649  -13.7937  -12.1310 H         1 <0>         0.1379
     58 H18        -6.6934  -13.8555  -11.7365 H         1 <0>         0.1425
     59 H19        -6.6664   -9.6738  -10.8783 H         1 <0>         0.1404
     60 H20        -4.2359   -9.6077  -11.2600 H         1 <0>         0.1430
     61 H21        -2.4462   -2.2569    0.5667 H         1 <0>         0.4659
@<TRIPOS>BOND
     1    1    2 1
     2    1   41 1
     3    1   42 1
     4    1   43 1
     5    2    6 1
     6    2    3 1
     7    3    4 2
     8    3   44 1
     9    4    5 1
    10    4    7 1
    11    5    6 2
    12    5   61 1
    13    6   45 1
    14    7   11 1
    15    7    8 2
    16    8    9 1
    17    8   46 1
    18    9   15 ar
    19    9   10 ar
    20   10   11 1
    21   10   12 ar
    22   12   13 ar
    23   12   16 1
    24   13   14 ar
    25   13   47 1
    26   14   15 ar
    27   14   48 1
    28   16   17 1
    29   17   22 ar
    30   17   18 ar
    31   18   19 ar
    32   18   49 1
    33   19   20 ar
    34   19   50 1
    35   20   21 ar
    36   20   24 1
    37   21   22 ar
    38   21   51 1
    39   22   23 1
    40   24   25 1
    41   24   52 1
    42   25   26 1
    43   25   37 1
    44   25   53 1
    45   26   27 1
    46   26   54 1
    47   26   55 1
    48   27   28 2
    49   27   29 am
    50   29   30 1
    51   29   56 1
    52   30   35 ar
    53   30   31 ar
    54   31   32 ar
    55   31   57 1
    56   32   33 ar
    57   32   58 1
    58   33   34 ar
    59   33   36 1
    60   34   35 ar
    61   34   59 1
    62   35   60 1
    63   37   38 1
    64   37   39 1
    65   37   40 1
@<TRIPOS>MOLECULE
CHEMBL602704__2
   60    64     0     0     0
SMALL
USER_CHARGES

@<TRIPOS>ATOM
      1 C1          2.1466    2.2039   -0.8593 C.3       1 <0>         0.0699
      2 N1          1.0624    1.5692   -1.6128 N.pl3     1 <0>        -0.4615
      3 C2          1.1749    0.4803   -2.4303 C.2       1 <0>        -0.0138
      4 C3         -0.0691    0.2307   -2.9226 C.2       1 <0>         0.0618
      5 N2         -0.9083    1.1540   -2.4079 N.2       1 <0>        -0.4688
      6 C4         -0.2396    1.9508   -1.6228 C.2       1 <0>         0.1961
      7 C5         -0.4356   -0.8567   -3.8549 C.2       1 <0>        -0.0135
      8 C6         -1.6538   -1.1471   -4.3798 C.2       1 <0>        -0.1343
      9 C7         -1.7990   -2.2360   -5.2597 C.ar      1 <0>         0.1638
     10 C8         -0.6152   -2.9574   -5.5278 C.ar      1 <0>        -0.2095
     11 S1          0.6155   -2.1068   -4.5742 S.3       1 <0>         0.1013
     12 C9         -0.6029   -4.0512   -6.3732 C.ar      1 <0>         0.2121
     13 C10        -1.8059   -4.4325   -6.9654 C.ar      1 <0>        -0.2400
     14 C11        -2.9436   -3.6986   -6.6763 C.ar      1 <0>         0.1582
     15 N3         -2.9266   -2.6663   -5.8713 N.ar      1 <0>        -0.4795
     16 O1          0.5452   -4.7324   -6.6195 O.3       1 <0>        -0.2341
     17 C12         0.4698   -5.8565   -7.3818 C.ar      1 <0>        -0.0130
     18 C13         0.3686   -7.0996   -6.7757 C.ar      1 <0>        -0.0403
     19 C14         0.2920   -8.2416   -7.5488 C.ar      1 <0>        -0.1773
     20 C15         0.3166   -8.1459   -8.9341 C.ar      1 <0>         0.2532
     21 C16         0.4179   -6.9017   -9.5420 C.ar      1 <0>        -0.2113
     22 C17         0.4884   -5.7584   -8.7674 C.ar      1 <0>         0.1481
     23 F1          0.5814   -4.5468   -9.3579 F         1 <0>        -0.1226
     24 N4          0.2399   -9.3030   -9.7169 N.pl3     1 <0>        -0.7164
     25 C18         0.2659   -9.2018  -11.1782 C.3       1 <0>         0.1283
     26 C19         0.7866  -10.5127  -11.7709 C.3       1 <0>        -0.1570
     27 C20         2.2223  -10.7147  -11.3597 C.2       1 <0>         0.5169
     28 O2          2.7746   -9.8912  -10.6612 O.2       1 <0>        -0.4979
     29 N5          2.8925  -11.8104  -11.7680 N.am      1 <0>        -0.6702
     30 C21         4.1904  -12.0517  -11.3011 C.ar      1 <0>         0.1320
     31 C22         5.1249  -12.6603  -12.1283 C.ar      1 <0>        -0.1135
     32 C23         6.4044  -12.8976  -11.6658 C.ar      1 <0>        -0.1333
     33 C24         6.7556  -12.5293  -10.3780 C.ar      1 <0>         0.0877
     34 C25         5.8251  -11.9222   -9.5514 C.ar      1 <0>        -0.1331
     35 C26         4.5463  -11.6776  -10.0121 C.ar      1 <0>        -0.0897
     36 F2          8.0075  -12.7630   -9.9271 F         1 <0>        -0.1374
     37 C27        -1.1487   -8.9343  -11.6961 C.3       1 <0>         0.4315
     38 F3         -1.6248   -7.7356  -11.1541 F         1 <0>        -0.1709
     39 F4         -1.1238   -8.8377  -13.0916 F         1 <0>        -0.1779
     40 F5         -1.9908   -9.9848  -11.3163 F         1 <0>        -0.1777
     41 H1          2.2267    1.7391    0.1234 H         1 <0>         0.0822
     42 H2          3.0857    2.0782   -1.3983 H         1 <0>         0.0894
     43 H3          1.9342    3.2666   -0.7424 H         1 <0>         0.0932
     44 H4          2.0763   -0.0745   -2.6446 H         1 <0>         0.1824
     45 H5         -0.6542    2.7816   -1.0711 H         1 <0>         0.2144
     46 H6         -2.5111   -0.5430   -4.1219 H         1 <0>         0.1538
     47 H7         -1.8493   -5.2797   -7.6337 H         1 <0>         0.1470
     48 H8         -3.8793   -3.9882   -7.1314 H         1 <0>         0.1653
     49 H9          0.3501   -7.1748   -5.6985 H         1 <0>         0.1457
     50 H10         0.2132   -9.2094   -7.0759 H         1 <0>         0.1402
     51 H11         0.4371   -6.8266  -10.6192 H         1 <0>         0.1405
     52 H12         0.1694  -10.1722   -9.2921 H         1 <0>         0.4139
     53 H13         0.9221   -8.3833  -11.4741 H         1 <0>         0.1357
     54 H14         0.1832  -11.3427  -11.4034 H         1 <0>         0.1216
     55 H15         0.7227  -10.4705  -12.8582 H         1 <0>         0.1297
     56 H16         2.4758  -12.4317  -12.3854 H         1 <0>         0.4151
     57 H17         4.8512  -12.9483  -13.1326 H         1 <0>         0.1375
     58 H18         7.1316  -13.3709  -12.3090 H         1 <0>         0.1416
     59 H19         6.1008  -11.6361   -8.5471 H         1 <0>         0.1405
     60 H20         3.8222  -11.2001   -9.3687 H         1 <0>         0.1438
@<TRIPOS>BOND
     1    1    2 1
     2    1   41 1
     3    1   42 1
     4    1   43 1
     5    2    6 1
     6    2    3 1
     7    3    4 2
     8    3   44 1
     9    4    5 1
    10    4    7 1
    11    5    6 2
    12    6   45 1
    13    7   11 1
    14    7    8 2
    15    8    9 1
    16    8   46 1
    17    9   15 ar
    18    9   10 ar
    19   10   11 1
    20   10   12 ar
    21   12   13 ar
    22   12   16 1
    23   13   14 ar
    24   13   47 1
    25   14   15 ar
    26   14   48 1
    27   16   17 1
    28   17   22 ar
    29   17   18 ar
    30   18   19 ar
    31   18   49 1
    32   19   20 ar
    33   19   50 1
    34   20   21 ar
    35   20   24 1
    36   21   22 ar
    37   21   51 1
    38   22   23 1
    39   24   25 1
    40   24   52 1
    41   25   26 1
    42   25   37 1
    43   25   53 1
    44   26   27 1
    45   26   54 1
    46   26   55 1
    47   27   28 2
    48   27   29 am
    49   29   30 1
    50   29   56 1
    51   30   35 ar
    52   30   31 ar
    53   31   32 ar
    54   31   57 1
    55   32   33 ar
    56   32   58 1
    57   33   34 ar
    58   33   36 1
    59   34   35 ar
    60   34   59 1
    61   35   60 1
    62   37   38 1
    63   37   39 1
    64   37   40 1
@<TRIPOS>MOLECULE
CHEMBL602704__3
   61    65     0     0     0
SMALL
USER_CHARGES

@<TRIPOS>ATOM
      1 C1          2.1466    2.2039   -0.8593 C.3       1 <0>         0.0540
      2 N1          1.0624    1.5692   -1.6128 N.pl3     1 <0>        -0.4063
      3 C2          1.1749    0.4803   -2.4303 C.2       1 <0>         0.0491
      4 C3         -0.0691    0.2307   -2.9226 C.2       1 <0>         0.1238
      5 N2         -0.9083    1.1540   -2.4079 N.pl3     1 <0>        -0.4714
      6 C4         -0.2396    1.9508   -1.6228 C.cat     1 <0>         0.3035
      7 C5         -0.4356   -0.8567   -3.8549 C.2       1 <0>        -0.1227
      8 C6         -1.6538   -1.1471   -4.3798 C.2       1 <0>        -0.0820
      9 C7         -1.7990   -2.2360   -5.2597 C.ar      1 <0>         0.1369
     10 C8         -0.6152   -2.9574   -5.5278 C.ar      1 <0>        -0.1941
     11 S1          0.6155   -2.1068   -4.5742 S.3       1 <0>         0.1694
     12 C9         -0.6029   -4.0512   -6.3732 C.ar      1 <0>         0.2102
     13 C10        -1.8059   -4.4325   -6.9654 C.ar      1 <0>        -0.2137
     14 C11        -2.9436   -3.6986   -6.6763 C.ar      1 <0>         0.1661
     15 N3         -2.9266   -2.6663   -5.8713 N.ar      1 <0>        -0.4707
     16 O1          0.5452   -4.7324   -6.6195 O.3       1 <0>        -0.2293
     17 C12         0.4698   -5.8565   -7.3818 C.ar      1 <0>        -0.0283
     18 C13         0.3686   -7.0996   -6.7757 C.ar      1 <0>        -0.0368
     19 C14         0.2920   -8.2416   -7.5488 C.ar      1 <0>        -0.1772
     20 C15         0.3166   -8.1459   -8.9341 C.ar      1 <0>         0.2622
     21 C16         0.4179   -6.9017   -9.5420 C.ar      1 <0>        -0.2115
     22 C17         0.4884   -5.7584   -8.7674 C.ar      1 <0>         0.1512
     23 F1          0.5814   -4.5468   -9.3579 F         1 <0>        -0.1232
     24 N4          0.2399   -9.3030   -9.7169 N.pl3     1 <0>        -0.7134
     25 C18         0.2659   -9.2018  -11.1782 C.3       1 <0>         0.1270
     26 C19         0.7866  -10.5127  -11.7709 C.3       1 <0>        -0.1585
     27 C20         2.2223  -10.7147  -11.3597 C.2       1 <0>         0.5179
     28 O2          2.7746   -9.8912  -10.6612 O.2       1 <0>        -0.5020
     29 N5          2.8925  -11.8104  -11.7680 N.am      1 <0>        -0.6686
     30 C21         4.1904  -12.0517  -11.3011 C.ar      1 <0>         0.1301
     31 C22         5.1249  -12.6603  -12.1283 C.ar      1 <0>        -0.1119
     32 C23         6.4044  -12.8976  -11.6658 C.ar      1 <0>        -0.1324
     33 C24         6.7556  -12.5293  -10.3780 C.ar      1 <0>         0.0894
     34 C25         5.8251  -11.9222   -9.5514 C.ar      1 <0>        -0.1342
     35 C26         4.5463  -11.6776  -10.0121 C.ar      1 <0>        -0.0900
     36 F2          8.0075  -12.7630   -9.9271 F         1 <0>        -0.1364
     37 C27        -1.1487   -8.9343  -11.6961 C.3       1 <0>         0.4326
     38 F3         -1.6248   -7.7356  -11.1541 F         1 <0>        -0.1733
     39 F4         -1.1238   -8.8377  -13.0916 F         1 <0>        -0.1754
     40 F5         -1.9908   -9.9848  -11.3163 F         1 <0>        -0.1762
     41 H1          2.2267    1.7391    0.1234 H         1 <0>         0.1142
     42 H2          3.0857    2.0782   -1.3983 H         1 <0>         0.1202
     43 H3          1.9342    3.2666   -0.7424 H         1 <0>         0.1190
     44 H4          2.0763   -0.0745   -2.6446 H         1 <0>         0.2278
     45 H5         -0.6542    2.7816   -1.0711 H         1 <0>         0.2687
     46 H6         -2.5111   -0.5430   -4.1219 H         1 <0>         0.1490
     47 H7         -1.8493   -5.2797   -7.6337 H         1 <0>         0.1570
     48 H8         -3.8793   -3.9882   -7.1314 H         1 <0>         0.1751
     49 H9          0.3501   -7.1748   -5.6985 H         1 <0>         0.1460
     50 H10         0.2132   -9.2094   -7.0759 H         1 <0>         0.1432
     51 H11         0.4371   -6.8266  -10.6192 H         1 <0>         0.1435
     52 H12         0.1694  -10.1722   -9.2921 H         1 <0>         0.4160
     53 H13         0.9221   -8.3833  -11.4741 H         1 <0>         0.1366
     54 H14         0.1832  -11.3427  -11.4034 H         1 <0>         0.1227
     55 H15         0.7227  -10.4705  -12.8582 H         1 <0>         0.1315
     56 H16         2.4758  -12.4317  -12.3854 H         1 <0>         0.4160
     57 H17         4.8512  -12.9483  -13.1326 H         1 <0>         0.1383
     58 H18         7.1316  -13.3709  -12.3090 H         1 <0>         0.1428
     59 H19         6.1008  -11.6361   -8.5471 H         1 <0>         0.1401
     60 H20         3.8222  -11.2001   -9.3687 H         1 <0>         0.1426
     61 H21        -1.8591    1.2131   -2.5907 H         1 <0>         0.4659
@<TRIPOS>BOND
     1    1    2 1
     2    1   41 1
     3    1   42 1
     4    1   43 1
     5    2    6 1
     6    2    3 1
     7    3    4 2
     8    3   44 1
     9    4    5 1
    10    4    7 1
    11    5    6 2
    12    5   61 1
    13    6   45 1
    14    7   11 1
    15    7    8 2
    16    8    9 1
    17    8   46 1
    18    9   15 ar
    19    9   10 ar
    20   10   11 1
    21   10   12 ar
    22   12   13 ar
    23   12   16 1
    24   13   14 ar
    25   13   47 1
    26   14   15 ar
    27   14   48 1
    28   16   17 1
    29   17   22 ar
    30   17   18 ar
    31   18   19 ar
    32   18   49 1
    33   19   20 ar
    34   19   50 1
    35   20   21 ar
    36   20   24 1
    37   21   22 ar
    38   21   51 1
    39   22   23 1
    40   24   25 1
    41   24   52 1
    42   25   26 1
    43   25   37 1
    44   25   53 1
    45   26   27 1
    46   26   54 1
    47   26   55 1
    48   27   28 2
    49   27   29 am
    50   29   30 1
    51   29   56 1
    52   30   35 ar
    53   30   31 ar
    54   31   32 ar
    55   31   57 1
    56   32   33 ar
    57   32   58 1
    58   33   34 ar
    59   33   36 1
    60   34   35 ar
    61   34   59 1
    62   35   60 1
    63   37   38 1
    64   37   39 1
    65   37   40 1
@<TRIPOS>MOLECULE
CHEMBL453849
   55    58     0     0     0
SMALL
USER_CHARGES

@<TRIPOS>ATOM
      1 C1          1.5358   -0.0992   -0.4791 C.3       1 <0>        -0.1533
      2 C2          1.1968   -1.5038    0.0241 C.3       1 <0>        -0.0915
      3 C3          2.0703   -2.5298   -0.7006 C.3       1 <0>        -0.1489
      4 C4          1.4591   -1.5833    1.5294 C.3       1 <0>        -0.1307
      5 C5          0.4980   -0.6470    2.2647 C.3       1 <0>         0.0816
      6 N1          0.7491   -0.7232    3.7060 N.am      1 <0>        -0.4863
      7 C6          0.0831   -1.6374    4.4510 C.2       1 <0>         0.1720
      8 C7          0.2877   -1.7388    5.7892 C.2       1 <0>        -0.2423
      9 C8          1.1972   -0.8934    6.4245 C.2       1 <0>         0.0755
     10 C9          1.8864    0.0494    5.6644 C.2       1 <0>        -0.2895
     11 C10         1.6423    0.1132    4.2679 C.2       1 <0>         0.5335
     12 O1          2.2359    0.9257    3.5801 O.2       1 <0>        -0.5444
     13 C11         2.8535    0.9586    6.2973 C.2       1 <0>         0.5846
     14 O2          2.9807    0.9649    7.5073 O.2       1 <0>        -0.5237
     15 N2          3.5989    1.7849    5.5370 N.am      1 <0>        -0.6620
     16 C12         4.6223    2.5410    6.1212 C.ar      1 <0>         0.1935
     17 C13         5.3331    2.0315    7.2001 C.ar      1 <0>        -0.1231
     18 C14         6.3430    2.7768    7.7763 C.ar      1 <0>        -0.0668
     19 C15         6.6483    4.0346    7.2783 C.ar      1 <0>         0.0220
     20 C16         5.9380    4.5461    6.1993 C.ar      1 <0>         0.1199
     21 C17         4.9307    3.7981    5.6184 C.ar      1 <0>        -0.1747
     22 F1          6.2351    5.7716    5.7144 F         1 <0>        -0.1234
     23 O3          7.6430    4.7677    7.8464 O.3       1 <0>        -0.2355
     24 C18         7.2959    5.7274    8.7403 C.ar      1 <0>         0.2102
     25 C19         5.9773    5.8811    9.1505 C.ar      1 <0>        -0.2828
     26 C20         5.6628    6.8718   10.0640 C.ar      1 <0>         0.1777
     27 N3          6.5829    7.6754   10.5559 N.ar      1 <0>        -0.5184
     28 C21         7.8592    7.5777   10.2025 C.ar      1 <0>         0.3158
     29 C22         8.2576    6.5913    9.2834 C.ar      1 <0>        -0.1775
     30 C23         9.7037    6.7446    9.1180 C.2       1 <0>        -0.1744
     31 C24        10.0806    7.7599    9.9109 C.2       1 <0>         0.0506
     32 N4          8.9885    8.2744   10.5588 N.pl3     1 <0>        -0.5789
     33 H1          9.0112    9.0141   11.1860 H         1 <0>         0.4228
     34 H2          2.5864    0.1138   -0.2815 H         1 <0>         0.0584
     35 H3          1.3490   -0.0426   -1.5515 H         1 <0>         0.0578
     36 H4          0.9136    0.6317    0.0372 H         1 <0>         0.0563
     37 H5          0.1463   -1.7168   -0.1734 H         1 <0>         0.0735
     38 H6          3.1209   -2.3168   -0.5031 H         1 <0>         0.0563
     39 H7          1.8288   -3.5304   -0.3421 H         1 <0>         0.0552
     40 H8          1.8835   -2.4731   -1.7730 H         1 <0>         0.0591
     41 H9          1.3029   -2.6063    1.8718 H         1 <0>         0.0695
     42 H10         2.4867   -1.2841    1.7355 H         1 <0>         0.0751
     43 H11         0.6542    0.3759    1.9222 H         1 <0>         0.1099
     44 H12        -0.5296   -0.9463    2.0586 H         1 <0>         0.0972
     45 H13        -0.6242   -2.2979    3.9715 H         1 <0>         0.1725
     46 H14        -0.2551   -2.4753    6.3631 H         1 <0>         0.1597
     47 H15         1.3643   -0.9682    7.4888 H         1 <0>         0.1540
     48 H16         3.4264    1.8558    4.5852 H         1 <0>         0.4283
     49 H17         5.0958    1.0523    7.5888 H         1 <0>         0.1504
     50 H18         6.8950    2.3800    8.6155 H         1 <0>         0.1477
     51 H19         4.3810    4.1931    4.7768 H         1 <0>         0.1479
     52 H20         5.2056    5.2342    8.7601 H         1 <0>         0.1398
     53 H21         4.6371    6.9891   10.3811 H         1 <0>         0.1657
     54 H22        10.3446    6.1538    8.4804 H         1 <0>         0.1530
     55 H23        11.0923    8.1233   10.0152 H         1 <0>         0.1811
@<TRIPOS>BOND
     1    1    2 1
     2    1   34 1
     3    1   35 1
     4    1   36 1
     5    2    3 1
     6    2    4 1
     7    2   37 1
     8    3   38 1
     9    3   39 1
    10    3   40 1
    11    4    5 1
    12    4   41 1
    13    4   42 1
    14    5    6 1
    15    5   43 1
    16    5   44 1
    17    6   11 am
    18    6    7 1
    19    7    8 2
    20    7   45 1
    21    8    9 1
    22    8   46 1
    23    9   10 2
    24    9   47 1
    25   10   11 1
    26   10   13 1
    27   11   12 2
    28   13   14 2
    29   13   15 am
    30   15   16 1
    31   15   48 1
    32   16   21 ar
    33   16   17 ar
    34   17   18 ar
    35   17   49 1
    36   18   19 ar
    37   18   50 1
    38   19   20 ar
    39   19   23 1
    40   20   21 ar
    41   20   22 1
    42   21   51 1
    43   23   24 1
    44   24   29 ar
    45   24   25 ar
    46   25   26 ar
    47   25   52 1
    48   26   27 ar
    49   26   53 1
    50   27   28 ar
    51   28   32 1
    52   28   29 ar
    53   29   30 1
    54   30   31 2
    55   30   54 1
    56   31   32 1
    57   31   55 1
    58   32   33 1
@<TRIPOS>MOLECULE
CHEMBL515659
   53    57     0     0     0
SMALL
USER_CHARGES

@<TRIPOS>ATOM
      1 C1          0.2965    1.4468    0.1628 C.3       1 <0>        -0.0474
      2 N1          0.1550   -0.0128    0.0763 N.4       1 <0>        -0.3845
      3 C2         -1.2590   -0.3759    0.2340 C.3       1 <0>        -0.0229
      4 C3         -1.4235   -1.8856    0.0300 C.3       1 <0>         0.0997
      5 N2         -0.5114   -2.5826    0.9500 N.pl3     1 <0>        -0.6178
      6 C4          0.8995   -2.1668    0.9747 C.3       1 <0>         0.1033
      7 C5          0.9543   -0.6438    1.1342 C.3       1 <0>        -0.0228
      8 C6         -0.9691   -3.6034    1.7717 C.ar      1 <0>         0.3590
      9 C7         -2.2570   -4.1312    1.5771 C.ar      1 <0>         0.0608
     10 N3         -2.7062   -5.0954    2.3440 N.ar      1 <0>        -0.3806
     11 C8         -1.9329   -5.5843    3.3225 C.ar      1 <0>         0.0801
     12 C9         -2.3922   -6.6177    4.1567 C.ar      1 <0>        -0.0755
     13 C10        -1.5919   -7.1017    5.1461 C.ar      1 <0>        -0.1090
     14 C11        -0.3142   -6.5895    5.3509 C.ar      1 <0>        -0.1591
     15 C12         0.1734   -5.5759    4.5546 C.ar      1 <0>         0.2484
     16 C13        -0.6350   -5.0548    3.5207 C.ar      1 <0>         0.1062
     17 N4         -0.1900   -4.0748    2.7265 N.ar      1 <0>        -0.4859
     18 N5          1.4549   -5.0694    4.7678 N.pl3     1 <0>        -0.7160
     19 C14         2.2888   -5.6148    5.8418 C.3       1 <0>         0.1598
     20 C15         3.6156   -4.9004    5.8595 C.ar      1 <0>        -0.0886
     21 C16         4.7023   -5.4702    5.2896 C.ar      1 <0>        -0.0361
     22 C17         5.9519   -4.8382    5.2857 C.ar      1 <0>        -0.0788
     23 C18         6.1398   -3.6237    5.8515 C.ar      1 <0>        -0.0724
     24 C19         5.0481   -2.9607    6.4693 C.ar      1 <0>         0.0844
     25 C20         3.7303   -3.6242    6.4687 C.ar      1 <0>         0.0961
     26 N6          2.8770   -2.8373    7.0822 N.2       1 <0>        -0.2533
     27 O1          3.5723   -1.6710    7.4881 O.3       1 <0>         0.0641
     28 N7          4.9240   -1.8074    7.0844 N.2       1 <0>        -0.2503
     29 C21        -2.0978   -8.2095    6.0338 C.3       1 <0>         0.5087
     30 F1         -3.3953   -8.5616    5.6467 F         1 <0>        -0.1713
     31 F2         -1.2579   -9.3220    5.9159 F         1 <0>        -0.1707
     32 F3         -2.1100   -7.7731    7.3630 F         1 <0>        -0.1705
     33 H1          1.3447    1.7183    0.0379 H         1 <0>         0.1260
     34 H2         -0.2965    1.9165   -0.6220 H         1 <0>         0.1270
     35 H3         -0.0539    1.7887    1.1367 H         1 <0>         0.1221
     36 H4         -1.5941   -0.1059    1.2355 H         1 <0>         0.1340
     37 H5         -1.8560    0.1579   -0.5054 H         1 <0>         0.1474
     38 H6         -2.4522   -2.1744    0.2454 H         1 <0>         0.1300
     39 H7         -1.1748   -2.1454   -0.9990 H         1 <0>         0.1006
     40 H8          1.4066   -2.6415    1.8147 H         1 <0>         0.1338
     41 H9          1.3827   -2.4549    0.0411 H         1 <0>         0.0922
     42 H10         1.9883   -0.3074    1.0580 H         1 <0>         0.1427
     43 H11         0.5523   -0.3657    2.1084 H         1 <0>         0.1326
     44 H12        -2.8826   -3.7389    0.7889 H         1 <0>         0.1747
     45 H13        -3.3809   -7.0280    4.0131 H         1 <0>         0.1562
     46 H14         0.3016   -6.9903    6.1425 H         1 <0>         0.1462
     47 H15         1.7942   -4.3560    4.2050 H         1 <0>         0.4091
     48 H16         1.7870   -5.4730    6.7990 H         1 <0>         0.0850
     49 H17         2.4513   -6.6789    5.6708 H         1 <0>         0.0918
     50 H18         4.6033   -6.4401    4.8249 H         1 <0>         0.1540
     51 H19         6.7894   -5.3344    4.8180 H         1 <0>         0.1559
     52 H20         7.1157   -3.1616    5.8334 H         1 <0>         0.1561
     53 H21         0.4823   -0.3284   -0.8244 H         1 <0>         0.4258
@<TRIPOS>BOND
     1    1    2 1
     2    1   33 1
     3    1   34 1
     4    1   35 1
     5    2    7 1
     6    2    3 1
     7    2   53 1
     8    3    4 1
     9    3   36 1
    10    3   37 1
    11    4    5 1
    12    4   38 1
    13    4   39 1
    14    5    6 1
    15    5    8 1
    16    6    7 1
    17    6   40 1
    18    6   41 1
    19    7   42 1
    20    7   43 1
    21    8   17 ar
    22    8    9 ar
    23    9   10 ar
    24    9   44 1
    25   10   11 ar
    26   11   16 ar
    27   11   12 ar
    28   12   13 ar
    29   12   45 1
    30   13   14 ar
    31   13   29 1
    32   14   15 ar
    33   14   46 1
    34   15   16 ar
    35   15   18 1
    36   16   17 ar
    37   18   19 1
    38   18   47 1
    39   19   20 1
    40   19   48 1
    41   19   49 1
    42   20   25 ar
    43   20   21 ar
    44   21   22 ar
    45   21   50 1
    46   22   23 ar
    47   22   51 1
    48   23   24 ar
    49   23   52 1
    50   24   28 2
    51   24   25 ar
    52   25   26 2
    53   26   27 1
    54   27   28 1
    55   29   30 1
    56   29   31 1
    57   29   32 1
@<TRIPOS>MOLECULE
CHEMBL515659__1
   52    56     0     0     0
SMALL
USER_CHARGES

@<TRIPOS>ATOM
      1 C1          0.2923    1.4475    0.1727 C.3       1 <0>         0.0240
      2 N1          0.1595   -0.0128    0.0846 N.3       1 <0>        -0.5421
      3 C2         -1.2507   -0.4184    0.1540 C.3       1 <0>         0.0379
      4 C3         -1.3605   -1.9218   -0.1220 C.3       1 <0>         0.1235
      5 N2         -0.4627   -2.6330    0.8007 N.pl3     1 <0>        -0.5946
      6 C4          0.9376   -2.1916    0.8877 C.3       1 <0>         0.1287
      7 C5          0.9570   -0.6776    1.1239 C.3       1 <0>         0.0389
      8 C6         -0.9246   -3.6930    1.5688 C.ar      1 <0>         0.3774
      9 C7         -2.1932   -4.2402    1.3115 C.ar      1 <0>         0.0574
     10 N3         -2.6460   -5.2414    2.0271 N.ar      1 <0>        -0.3884
     11 C8         -1.8949   -5.7500    3.0128 C.ar      1 <0>         0.0584
     12 C9         -2.3584   -6.8231    3.7927 C.ar      1 <0>        -0.0674
     13 C10        -1.5807   -7.3266    4.7904 C.ar      1 <0>        -0.1278
     14 C11        -0.3222   -6.7956    5.0570 C.ar      1 <0>        -0.1668
     15 C12         0.1688   -5.7431    4.3151 C.ar      1 <0>         0.2442
     16 C13        -0.6163   -5.2011    3.2741 C.ar      1 <0>         0.1197
     17 N4         -0.1672   -4.1831    2.5316 N.ar      1 <0>        -0.5046
     18 N5          1.4309   -5.2181    4.5899 N.pl3     1 <0>        -0.7192
     19 C14         2.2408   -5.7852    5.6710 C.3       1 <0>         0.1625
     20 C15         3.5500   -5.0443    5.7597 C.ar      1 <0>        -0.0821
     21 C16         4.6674   -5.5696    5.2066 C.ar      1 <0>        -0.0421
     22 C17         5.9021   -4.9117    5.2680 C.ar      1 <0>        -0.0762
     23 C18         6.0441   -3.7154    5.8838 C.ar      1 <0>        -0.0756
     24 C19         4.9181   -3.0989    6.4879 C.ar      1 <0>         0.0861
     25 C20         3.6161   -3.7895    6.4185 C.ar      1 <0>         0.0950
     26 N6          2.7256   -3.0441    7.0310 N.2       1 <0>        -0.2491
     27 O1          3.3810   -1.8793    7.5024 O.3       1 <0>         0.0637
     28 N7          4.7480   -1.9722    7.1401 N.2       1 <0>        -0.2542
     29 C21        -2.0910   -8.4770    5.6195 C.3       1 <0>         0.5107
     30 F1         -3.3667   -8.8416    5.1761 F         1 <0>        -0.1745
     31 F2         -1.2230   -9.5665    5.4897 F         1 <0>        -0.1746
     32 F3         -2.1569   -8.0907    6.9625 F         1 <0>        -0.1742
     33 H1          1.3380    1.7258    0.0423 H         1 <0>         0.0718
     34 H2         -0.3081    1.9147   -0.6079 H         1 <0>         0.0723
     35 H3         -0.0547    1.7856    1.1492 H         1 <0>         0.0269
     36 H4         -1.6431   -0.2014    1.1475 H         1 <0>         0.0404
     37 H5         -1.8244    0.1312   -0.5922 H         1 <0>         0.0931
     38 H6         -2.3872   -2.2498    0.0405 H         1 <0>         0.0904
     39 H7         -1.0659   -2.1276   -1.1510 H         1 <0>         0.0846
     40 H8          1.4303   -2.6980    1.7177 H         1 <0>         0.0963
     41 H9          1.4531   -2.4234   -0.0443 H         1 <0>         0.0752
     42 H10         1.9843   -0.3159    1.0811 H         1 <0>         0.0880
     43 H11         0.5338   -0.4569    2.1038 H         1 <0>         0.0390
     44 H12        -2.8009   -3.8321    0.5174 H         1 <0>         0.1752
     45 H13        -3.3324   -7.2484    3.6008 H         1 <0>         0.1497
     46 H14         0.2758   -7.2125    5.8538 H         1 <0>         0.1395
     47 H15         1.7728   -4.4772    4.0653 H         1 <0>         0.4118
     48 H16         1.7045   -5.6897    6.6151 H         1 <0>         0.0814
     49 H17         2.4325   -6.8387    5.4670 H         1 <0>         0.0883
     50 H18         4.6055   -6.5234    4.7038 H         1 <0>         0.1531
     51 H19         6.7654   -5.3725    4.8113 H         1 <0>         0.1541
     52 H20         7.0095   -3.2325    5.9155 H         1 <0>         0.1544
@<TRIPOS>BOND
     1    1    2 1
     2    1   33 1
     3    1   34 1
     4    1   35 1
     5    2    7 1
     6    2    3 1
     7    3    4 1
     8    3   36 1
     9    3   37 1
    10    4    5 1
    11    4   38 1
    12    4   39 1
    13    5    6 1
    14    5    8 1
    15    6    7 1
    16    6   40 1
    17    6   41 1
    18    7   42 1
    19    7   43 1
    20    8   17 ar
    21    8    9 ar
    22    9   10 ar
    23    9   44 1
    24   10   11 ar
    25   11   16 ar
    26   11   12 ar
    27   12   13 ar
    28   12   45 1
    29   13   14 ar
    30   13   29 1
    31   14   15 ar
    32   14   46 1
    33   15   16 ar
    34   15   18 1
    35   16   17 ar
    36   18   19 1
    37   18   47 1
    38   19   20 1
    39   19   48 1
    40   19   49 1
    41   20   25 ar
    42   20   21 ar
    43   21   22 ar
    44   21   50 1
    45   22   23 ar
    46   22   51 1
    47   23   24 ar
    48   23   52 1
    49   24   28 2
    50   24   25 ar
    51   25   26 2
    52   26   27 1
    53   27   28 1
    54   29   30 1
    55   29   31 1
    56   29   32 1
@<TRIPOS>MOLECULE
CHEMBL508776
   66    71     0     0     0
SMALL
USER_CHARGES

@<TRIPOS>ATOM
      1 C1         -0.1875    1.4401    0.1545 C.3       1 <0>        -0.0465
      2 N1         -0.2770   -0.0209    0.0299 N.4       1 <0>        -0.3901
      3 C2         -0.3667   -0.3892   -1.3919 C.3       1 <0>        -0.0025
      4 C3         -0.1952   -1.9053   -1.5157 C.3       1 <0>        -0.1157
      5 C4         -1.1164   -2.5970   -0.5488 C.2       1 <0>        -0.0147
      6 C5         -1.6883   -1.9628    0.4567 C.2       1 <0>        -0.1642
      7 C6         -1.4775   -0.5004    0.7244 C.3       1 <0>         0.0367
      8 C7         -1.3900   -4.0317   -0.7311 C.2       1 <0>        -0.1185
      9 C8         -2.5667   -4.6376   -1.0439 C.2       1 <0>        -0.0994
     10 C9         -2.6228   -6.0371   -1.1749 C.ar      1 <0>         0.1436
     11 C10        -1.4017   -6.7134   -0.9608 C.ar      1 <0>        -0.1978
     12 S1         -0.2576   -5.4053   -0.6039 S.3       1 <0>         0.1130
     13 C11        -1.3034   -8.0899   -1.0555 C.ar      1 <0>         0.2100
     14 C12        -2.4558   -8.8063   -1.3722 C.ar      1 <0>        -0.2230
     15 C13        -3.6328   -8.1049   -1.5744 C.ar      1 <0>         0.1647
     16 N2         -3.6974   -6.8013   -1.4788 N.ar      1 <0>        -0.4730
     17 O1         -0.1208   -8.7231   -0.8468 O.3       1 <0>        -0.2336
     18 C14        -0.1159  -10.0831   -0.8477 C.ar      1 <0>         0.0144
     19 C15         0.0307  -10.7767    0.3443 C.ar      1 <0>        -0.0590
     20 C16         0.0354  -12.1578    0.3444 C.ar      1 <0>        -0.1415
     21 C17        -0.1064  -12.8533   -0.8490 C.ar      1 <0>         0.2051
     22 C18        -0.2532  -12.1601   -2.0429 C.ar      1 <0>        -0.1607
     23 C19        -0.2636  -10.7775   -2.0419 C.ar      1 <0>         0.1168
     24 F1         -0.4117  -10.1020   -3.2025 F         1 <0>        -0.1200
     25 N3         -0.1007  -14.2544   -0.8484 N.am      1 <0>        -0.6693
     26 C20         0.2925  -14.9271   -1.9481 C.2       1 <0>         0.7306
     27 O2          0.5060  -14.3273   -2.9835 O.2       1 <0>        -0.5017
     28 N4          0.4488  -16.2649   -1.8997 N.am      1 <0>        -0.5854
     29 C21         0.1112  -17.1213   -0.7529 C.3       1 <0>         0.0677
     30 C22         0.4835  -18.5390   -1.2285 C.3       1 <0>         0.0879
     31 N5          0.9914  -18.3309   -2.5927 N.am      1 <0>        -0.5613
     32 C23         0.9310  -17.0263   -2.8906 C.2       1 <0>         0.7074
     33 O3          1.2854  -16.5739   -3.9616 O.2       1 <0>        -0.5030
     34 C24         1.4582  -19.3367   -3.4464 C.ar      1 <0>         0.1774
     35 C25         2.0989  -19.0013   -4.6319 C.ar      1 <0>        -0.1497
     36 C26         2.5588  -19.9964   -5.4721 C.ar      1 <0>        -0.0888
     37 C27         2.3814  -21.3254   -5.1341 C.ar      1 <0>        -0.1390
     38 C28         1.7434  -21.6627   -3.9545 C.ar      1 <0>        -0.0910
     39 C29         1.2867  -20.6723   -3.1071 C.ar      1 <0>        -0.1535
     40 H1         -0.1297    1.7119    1.2085 H         1 <0>         0.1263
     41 H2          0.7045    1.7948   -0.3617 H         1 <0>         0.1265
     42 H3         -1.0711    1.8975   -0.2907 H         1 <0>         0.1239
     43 H4         -1.3409   -0.0979   -1.7845 H         1 <0>         0.1356
     44 H5          0.4216    0.1151   -1.9509 H         1 <0>         0.1411
     45 H6         -0.4361   -2.2161   -2.5323 H         1 <0>         0.1299
     46 H7          0.8367   -2.1737   -1.2893 H         1 <0>         0.1107
     47 H8         -2.3364   -2.5202    1.1167 H         1 <0>         0.1566
     48 H9         -1.3608   -0.3431    1.7966 H         1 <0>         0.1454
     49 H10        -2.3447    0.0587    0.3731 H         1 <0>         0.1435
     50 H11        -3.4574   -4.0448   -1.1912 H         1 <0>         0.1512
     51 H12        -2.4317   -9.8826   -1.4584 H         1 <0>         0.1521
     52 H13        -4.5299   -8.6537   -1.8202 H         1 <0>         0.1729
     53 H14         0.1417  -10.2365    1.2729 H         1 <0>         0.1519
     54 H15         0.1496  -12.6971    1.2731 H         1 <0>         0.1493
     55 H16        -0.3635  -12.7006   -2.9714 H         1 <0>         0.1805
     56 H17        -0.3796  -14.7402   -0.0565 H         1 <0>         0.4174
     57 H18         0.7022  -16.8429    0.1196 H         1 <0>         0.1058
     58 H19        -0.9541  -17.0599   -0.5301 H         1 <0>         0.1062
     59 H20         1.2594  -18.9645   -0.5921 H         1 <0>         0.1033
     60 H21        -0.3968  -19.1816   -1.2419 H         1 <0>         0.1025
     61 H22         2.2371  -17.9635   -4.8968 H         1 <0>         0.1534
     62 H23         3.0572  -19.7362   -6.3942 H         1 <0>         0.1296
     63 H24         2.7416  -22.1017   -5.7929 H         1 <0>         0.1266
     64 H25         1.6057  -22.7017   -3.6937 H         1 <0>         0.1301
     65 H26         0.7924  -20.9364   -2.1838 H         1 <0>         0.1263
     66 H27         0.5419   -0.4454    0.4389 H         1 <0>         0.4289
@<TRIPOS>BOND
     1    1    2 1
     2    1   40 1
     3    1   41 1
     4    1   42 1
     5    2    7 1
     6    2    3 1
     7    2   66 1
     8    3    4 1
     9    3   43 1
    10    3   44 1
    11    4    5 1
    12    4   45 1
    13    4   46 1
    14    5    6 2
    15    5    8 1
    16    6    7 1
    17    6   47 1
    18    7   48 1
    19    7   49 1
    20    8   12 1
    21    8    9 2
    22    9   10 1
    23    9   50 1
    24   10   16 ar
    25   10   11 ar
    26   11   12 1
    27   11   13 ar
    28   13   14 ar
    29   13   17 1
    30   14   15 ar
    31   14   51 1
    32   15   16 ar
    33   15   52 1
    34   17   18 1
    35   18   23 ar
    36   18   19 ar
    37   19   20 ar
    38   19   53 1
    39   20   21 ar
    40   20   54 1
    41   21   22 ar
    42   21   25 1
    43   22   23 ar
    44   22   55 1
    45   23   24 1
    46   25   26 am
    47   25   56 1
    48   26   27 2
    49   26   28 am
    50   28   32 am
    51   28   29 1
    52   29   30 1
    53   29   57 1
    54   29   58 1
    55   30   31 1
    56   30   59 1
    57   30   60 1
    58   31   32 am
    59   31   34 1
    60   32   33 2
    61   34   39 ar
    62   34   35 ar
    63   35   36 ar
    64   35   61 1
    65   36   37 ar
    66   36   62 1
    67   37   38 ar
    68   37   63 1
    69   38   39 ar
    70   38   64 1
    71   39   65 1
@<TRIPOS>MOLECULE
CHEMBL508776__1
   65    70     0     0     0
SMALL
USER_CHARGES

@<TRIPOS>ATOM
      1 C1         -0.1593    1.4269    0.2022 C.3       1 <0>         0.0222
      2 N1         -0.2818   -0.0231    0.0015 N.3       1 <0>        -0.5402
      3 C2         -0.3973   -0.3498   -1.4293 C.3       1 <0>         0.0516
      4 C3         -0.1985   -1.8577   -1.6019 C.3       1 <0>        -0.0746
      5 C4         -1.0707   -2.5987   -0.6270 C.2       1 <0>        -0.0526
      6 C5         -1.6183   -2.0169    0.4216 C.2       1 <0>        -0.1110
      7 C6         -1.4307   -0.5615    0.7406 C.3       1 <0>         0.0814
      8 C7         -1.3237   -4.0310   -0.8527 C.2       1 <0>        -0.0572
      9 C8         -2.4996   -4.6486   -1.1453 C.2       1 <0>        -0.1422
     10 C9         -2.5342   -6.0433   -1.3262 C.ar      1 <0>         0.1596
     11 C10        -1.2936   -6.7022   -1.1815 C.ar      1 <0>        -0.2098
     12 S1         -0.1619   -5.3853   -0.8175 S.3       1 <0>         0.0997
     13 C11        -1.1729   -8.0721   -1.3309 C.ar      1 <0>         0.2121
     14 C12        -2.3225   -8.7995   -1.6324 C.ar      1 <0>        -0.2388
     15 C13        -3.5191   -8.1149   -1.7658 C.ar      1 <0>         0.1596
     16 N2         -3.6047   -6.8173   -1.6195 N.ar      1 <0>        -0.4789
     17 O1          0.0281   -8.6886   -1.1885 O.3       1 <0>        -0.2352
     18 C14         0.0585  -10.0473   -1.2402 C.ar      1 <0>         0.0243
     19 C15         0.2617  -10.7809   -0.0810 C.ar      1 <0>        -0.0614
     20 C16         0.2923  -12.1607   -0.1324 C.ar      1 <0>        -0.1413
     21 C17         0.1200  -12.8148   -1.3450 C.ar      1 <0>         0.1973
     22 C18        -0.0836  -12.0816   -2.5062 C.ar      1 <0>        -0.1608
     23 C19        -0.1198  -10.7004   -2.4534 C.ar      1 <0>         0.1157
     24 F1         -0.3230   -9.9861   -3.5820 F         1 <0>        -0.1190
     25 N3          0.1520  -14.2146   -1.3968 N.am      1 <0>        -0.6682
     26 C20         0.5171  -14.8387   -2.5342 C.2       1 <0>         0.7294
     27 O2          0.6812  -14.1973   -3.5536 O.2       1 <0>        -0.5012
     28 N4          0.7001  -16.1739   -2.5413 N.am      1 <0>        -0.5855
     29 C21         0.4209  -17.0782   -1.4158 C.3       1 <0>         0.0677
     30 C22         0.8021  -18.4699   -1.9569 C.3       1 <0>         0.0885
     31 N5          1.2557  -18.2019   -3.3299 N.am      1 <0>        -0.5625
     32 C23         1.1599  -16.8888   -3.5766 C.2       1 <0>         0.7076
     33 O3          1.4662  -16.3906   -4.6421 O.2       1 <0>        -0.5029
     34 C24         1.7096  -19.1663   -4.2366 C.ar      1 <0>         0.1798
     35 C25         2.3000  -18.7750   -5.4311 C.ar      1 <0>        -0.1498
     36 C26         2.7473  -19.7292   -6.3237 C.ar      1 <0>        -0.0886
     37 C27         2.6074  -21.0731   -6.0292 C.ar      1 <0>        -0.1408
     38 C28         2.0195  -21.4660   -4.8409 C.ar      1 <0>        -0.0916
     39 C29         1.5757  -20.5166   -3.9413 C.ar      1 <0>        -0.1546
     40 H1         -0.0922    1.6417    1.2688 H         1 <0>         0.0713
     41 H2          0.7389    1.7884   -0.2984 H         1 <0>         0.0724
     42 H3         -1.0337    1.9266   -0.2147 H         1 <0>         0.0282
     43 H4         -1.3860   -0.0671   -1.7907 H         1 <0>         0.0423
     44 H5          0.3678    0.1870   -1.9902 H         1 <0>         0.0845
     45 H6         -0.4661   -2.1447   -2.6188 H         1 <0>         0.0816
     46 H7          0.8460   -2.1092   -1.4178 H         1 <0>         0.0871
     47 H8         -2.2299   -2.6144    1.0814 H         1 <0>         0.1212
     48 H9         -1.2580   -0.4456    1.8106 H         1 <0>         0.0942
     49 H10        -2.3295   -0.0121    0.4608 H         1 <0>         0.0546
     50 H11        -3.4060   -4.0688   -1.2384 H         1 <0>         0.1488
     51 H12        -2.2814   -9.8712   -1.7594 H         1 <0>         0.1460
     52 H13        -4.4142   -8.6723   -1.9995 H         1 <0>         0.1665
     53 H14         0.3966  -10.2728    0.8625 H         1 <0>         0.1522
     54 H15         0.4506  -12.7311    0.7709 H         1 <0>         0.1472
     55 H16        -0.2177  -12.5899   -3.4497 H         1 <0>         0.1784
     56 H17        -0.0886  -14.7345   -0.6141 H         1 <0>         0.4160
     57 H18         1.0382  -16.8201   -0.5553 H         1 <0>         0.1058
     58 H19        -0.6364  -17.0465   -1.1527 H         1 <0>         0.1059
     59 H20         1.6087  -18.9027   -1.3652 H         1 <0>         0.1025
     60 H21        -0.0659  -19.1291   -1.9625 H         1 <0>         0.1016
     61 H22         2.4089  -17.7256   -5.6619 H         1 <0>         0.1541
     62 H23         3.2066  -19.4256   -7.2528 H         1 <0>         0.1292
     63 H24         2.9578  -21.8174   -6.7290 H         1 <0>         0.1256
     64 H25         1.9111  -22.5163   -4.6141 H         1 <0>         0.1292
     65 H26         1.1207  -20.8241   -3.0113 H         1 <0>         0.1261
@<TRIPOS>BOND
     1    1    2 1
     2    1   40 1
     3    1   41 1
     4    1   42 1
     5    2    7 1
     6    2    3 1
     7    3    4 1
     8    3   43 1
     9    3   44 1
    10    4    5 1
    11    4   45 1
    12    4   46 1
    13    5    6 2
    14    5    8 1
    15    6    7 1
    16    6   47 1
    17    7   48 1
    18    7   49 1
    19    8   12 1
    20    8    9 2
    21    9   10 1
    22    9   50 1
    23   10   16 ar
    24   10   11 ar
    25   11   12 1
    26   11   13 ar
    27   13   14 ar
    28   13   17 1
    29   14   15 ar
    30   14   51 1
    31   15   16 ar
    32   15   52 1
    33   17   18 1
    34   18   23 ar
    35   18   19 ar
    36   19   20 ar
    37   19   53 1
    38   20   21 ar
    39   20   54 1
    40   21   22 ar
    41   21   25 1
    42   22   23 ar
    43   22   55 1
    44   23   24 1
    45   25   26 am
    46   25   56 1
    47   26   27 2
    48   26   28 am
    49   28   32 am
    50   28   29 1
    51   29   30 1
    52   29   57 1
    53   29   58 1
    54   30   31 1
    55   30   59 1
    56   30   60 1
    57   31   32 am
    58   31   34 1
    59   32   33 2
    60   34   39 ar
    61   34   35 ar
    62   35   36 ar
    63   35   61 1
    64   36   37 ar
    65   36   62 1
    66   37   38 ar
    67   37   63 1
    68   38   39 ar
    69   38   64 1
    70   39   65 1
@<TRIPOS>MOLECULE
CHEMBL254760
   56    60     0     0     0
SMALL
USER_CHARGES

@<TRIPOS>ATOM
      1 C1          0.7002    0.0921    1.3580 C.3       1 <0>         0.0698
      2 N1         -0.1273   -0.1933    0.1832 N.pl3     1 <0>        -0.4614
      3 C2          0.0748   -1.1939   -0.7248 C.2       1 <0>        -0.0135
      4 C3         -0.9230   -1.0943   -1.6451 C.2       1 <0>         0.0613
      5 N2         -1.7059   -0.0530   -1.2921 N.2       1 <0>        -0.4686
      6 C4         -1.2389    0.4838   -0.2002 C.2       1 <0>         0.1965
      7 C5         -1.1149   -1.9698   -2.8208 C.2       1 <0>        -0.0123
      8 C6         -2.0848   -1.9126   -3.7696 C.2       1 <0>        -0.1341
      9 C7         -2.0950   -2.8470   -4.8221 C.ar      1 <0>         0.1648
     10 C8         -1.0523   -3.7987   -4.7945 C.ar      1 <0>        -0.2081
     11 S1         -0.1248   -3.3579   -3.3478 S.3       1 <0>         0.1024
     12 C9         -0.9329   -4.7786   -5.7623 C.ar      1 <0>         0.2123
     13 C10        -1.8813   -4.8066   -6.7836 C.ar      1 <0>        -0.2368
     14 C11        -2.8874   -3.8558   -6.7741 C.ar      1 <0>         0.1599
     15 N3         -2.9763   -2.9381   -5.8446 N.ar      1 <0>        -0.4767
     16 O1          0.0767   -5.6851   -5.7196 O.3       1 <0>        -0.2386
     17 C12         0.0762   -6.6852   -6.6413 C.ar      1 <0>         0.0542
     18 C13        -0.3566   -7.9542   -6.2871 C.ar      1 <0>        -0.0809
     19 C14        -0.3574   -8.9705   -7.2223 C.ar      1 <0>        -0.0633
     20 C15         0.0752   -8.7224   -8.5184 C.ar      1 <0>         0.1556
     21 C16         0.5087   -7.4523   -8.8742 C.ar      1 <0>        -0.1432
     22 C17         0.5040   -6.4339   -7.9390 C.ar      1 <0>         0.0970
     23 F1          0.9205   -5.1963   -8.2856 F         1 <0>        -0.1213
     24 N4          0.0746   -9.7534   -9.4663 N.pl3     1 <0>        -0.6250
     25 C18        -1.0017  -10.5553   -9.5891 C.2       1 <0>         0.5081
     26 S2         -2.3206  -10.3891   -8.5103 S.2       1 <0>        -0.4739
     27 N5         -1.0396  -11.4881  -10.5611 N.am      1 <0>        -0.6416
     28 C19        -2.1159  -12.2901  -10.6839 C.2       1 <0>         0.4828
     29 O2         -3.0499  -12.1723   -9.9199 O.2       1 <0>        -0.3888
     30 C20        -2.1583  -13.3331  -11.7708 C.3       1 <0>        -0.0933
     31 C21        -3.4594  -14.0892  -11.6909 C.ar      1 <0>        -0.0802
     32 C22        -3.5517  -15.2254  -10.9089 C.ar      1 <0>        -0.1013
     33 C23        -4.7452  -15.9190  -10.8356 C.ar      1 <0>        -0.1183
     34 C24        -5.8466  -15.4761  -11.5439 C.ar      1 <0>        -0.1130
     35 C25        -5.7546  -14.3394  -12.3252 C.ar      1 <0>        -0.1181
     36 C26        -4.5623  -13.6434  -12.3951 C.ar      1 <0>        -0.1012
     37 H1          0.3247   -0.4710    2.2124 H         1 <0>         0.0824
     38 H2          1.7310   -0.1989    1.1557 H         1 <0>         0.0894
     39 H3          0.6606    1.1585    1.5799 H         1 <0>         0.0932
     40 H4          0.8721   -1.9223   -0.7147 H         1 <0>         0.1824
     41 H5         -1.6658    1.3318    0.3145 H         1 <0>         0.2145
     42 H6         -2.8482   -1.1505   -3.7164 H         1 <0>         0.1546
     43 H7         -1.8320   -5.5519   -7.5637 H         1 <0>         0.1473
     44 H8         -3.6256   -3.8714   -7.5622 H         1 <0>         0.1669
     45 H9         -0.6929   -8.1480   -5.2792 H         1 <0>         0.1527
     46 H10        -0.6944   -9.9585   -6.9455 H         1 <0>         0.1627
     47 H11         0.8457   -7.2589   -9.8819 H         1 <0>         0.1488
     48 H12         0.8487   -9.8902  -10.0345 H         1 <0>         0.4120
     49 H13        -0.2923  -11.5823  -11.1724 H         1 <0>         0.4125
     50 H14        -2.0793  -12.8476  -12.7435 H         1 <0>         0.1092
     51 H15        -1.3269  -14.0261  -11.6420 H         1 <0>         0.1092
     52 H16        -2.6912  -15.5714  -10.3556 H         1 <0>         0.1202
     53 H17        -4.8170  -16.8070  -10.2253 H         1 <0>         0.1237
     54 H18        -6.7788  -16.0184  -11.4872 H         1 <0>         0.1232
     55 H19        -6.6150  -13.9936  -12.8788 H         1 <0>         0.1238
     56 H20        -4.4914  -12.7532  -13.0025 H         1 <0>         0.1202
@<TRIPOS>BOND
     1    1    2 1
     2    1   37 1
     3    1   38 1
     4    1   39 1
     5    2    6 1
     6    2    3 1
     7    3    4 2
     8    3   40 1
     9    4    5 1
    10    4    7 1
    11    5    6 2
    12    6   41 1
    13    7   11 1
    14    7    8 2
    15    8    9 1
    16    8   42 1
    17    9   15 ar
    18    9   10 ar
    19   10   11 1
    20   10   12 ar
    21   12   13 ar
    22   12   16 1
    23   13   14 ar
    24   13   43 1
    25   14   15 ar
    26   14   44 1
    27   16   17 1
    28   17   22 ar
    29   17   18 ar
    30   18   19 ar
    31   18   45 1
    32   19   20 ar
    33   19   46 1
    34   20   21 ar
    35   20   24 1
    36   21   22 ar
    37   21   47 1
    38   22   23 1
    39   24   25 1
    40   24   48 1
    41   25   26 2
    42   25   27 1
    43   27   28 am
    44   27   49 1
    45   28   29 2
    46   28   30 1
    47   30   31 1
    48   30   50 1
    49   30   51 1
    50   31   36 ar
    51   31   32 ar
    52   32   33 ar
    53   32   52 1
    54   33   34 ar
    55   33   53 1
    56   34   35 ar
    57   34   54 1
    58   35   36 ar
    59   35   55 1
    60   36   56 1
@<TRIPOS>MOLECULE
CHEMBL254760__1
   57    61     0     0     0
SMALL
USER_CHARGES

@<TRIPOS>ATOM
      1 C1          0.7002    0.0921    1.3580 C.3       1 <0>         0.0541
      2 N1         -0.1273   -0.1933    0.1832 N.pl3     1 <0>        -0.4064
      3 C2          0.0748   -1.1939   -0.7248 C.2       1 <0>         0.0495
      4 C3         -0.9230   -1.0943   -1.6451 C.2       1 <0>         0.1233
      5 N2         -1.7059   -0.0530   -1.2921 N.pl3     1 <0>        -0.4713
      6 C4         -1.2389    0.4838   -0.2002 C.cat     1 <0>         0.3041
      7 C5         -1.1149   -1.9698   -2.8208 C.2       1 <0>        -0.1214
      8 C6         -2.0848   -1.9126   -3.7696 C.2       1 <0>        -0.0817
      9 C7         -2.0950   -2.8470   -4.8221 C.ar      1 <0>         0.1377
     10 C8         -1.0523   -3.7987   -4.7945 C.ar      1 <0>        -0.1928
     11 S1         -0.1248   -3.3579   -3.3478 S.3       1 <0>         0.1704
     12 C9         -0.9329   -4.7786   -5.7623 C.ar      1 <0>         0.2109
     13 C10        -1.8813   -4.8066   -6.7836 C.ar      1 <0>        -0.2105
     14 C11        -2.8874   -3.8558   -6.7741 C.ar      1 <0>         0.1679
     15 N3         -2.9763   -2.9381   -5.8446 N.ar      1 <0>        -0.4677
     16 O1          0.0767   -5.6851   -5.7196 O.3       1 <0>        -0.2345
     17 C12         0.0762   -6.6852   -6.6413 C.ar      1 <0>         0.0407
     18 C13        -0.3566   -7.9542   -6.2871 C.ar      1 <0>        -0.0780
     19 C14        -0.3574   -8.9705   -7.2223 C.ar      1 <0>        -0.0630
     20 C15         0.0752   -8.7224   -8.5184 C.ar      1 <0>         0.1665
     21 C16         0.5087   -7.4523   -8.8742 C.ar      1 <0>        -0.1428
     22 C17         0.5040   -6.4339   -7.9390 C.ar      1 <0>         0.0986
     23 F1          0.9205   -5.1963   -8.2856 F         1 <0>        -0.1222
     24 N4          0.0746   -9.7534   -9.4663 N.pl3     1 <0>        -0.6282
     25 C18        -1.0017  -10.5553   -9.5891 C.2       1 <0>         0.5099
     26 S2         -2.3206  -10.3891   -8.5103 S.2       1 <0>        -0.4750
     27 N5         -1.0396  -11.4881  -10.5611 N.am      1 <0>        -0.6400
     28 C19        -2.1159  -12.2901  -10.6839 C.2       1 <0>         0.4833
     29 O2         -3.0499  -12.1723   -9.9199 O.2       1 <0>        -0.3880
     30 C20        -2.1583  -13.3331  -11.7708 C.3       1 <0>        -0.0928
     31 C21        -3.4594  -14.0892  -11.6909 C.ar      1 <0>        -0.0821
     32 C22        -3.5517  -15.2254  -10.9089 C.ar      1 <0>        -0.1013
     33 C23        -4.7452  -15.9190  -10.8356 C.ar      1 <0>        -0.1178
     34 C24        -5.8466  -15.4761  -11.5439 C.ar      1 <0>        -0.1118
     35 C25        -5.7546  -14.3394  -12.3252 C.ar      1 <0>        -0.1179
     36 C26        -4.5623  -13.6434  -12.3951 C.ar      1 <0>        -0.1014
     37 H1          0.3247   -0.4710    2.2124 H         1 <0>         0.1143
     38 H2          1.7310   -0.1989    1.1557 H         1 <0>         0.1202
     39 H3          0.6606    1.1585    1.5799 H         1 <0>         0.1190
     40 H4          0.8721   -1.9223   -0.7147 H         1 <0>         0.2279
     41 H5         -1.6658    1.3318    0.3145 H         1 <0>         0.2688
     42 H6         -2.8482   -1.1505   -3.7164 H         1 <0>         0.1498
     43 H7         -1.8320   -5.5519   -7.5637 H         1 <0>         0.1572
     44 H8         -3.6256   -3.8714   -7.5622 H         1 <0>         0.1768
     45 H9         -0.6929   -8.1480   -5.2792 H         1 <0>         0.1530
     46 H10        -0.6944   -9.9585   -6.9455 H         1 <0>         0.1655
     47 H11         0.8457   -7.2589   -9.8819 H         1 <0>         0.1518
     48 H12         0.8487   -9.8902  -10.0345 H         1 <0>         0.4141
     49 H13        -0.2923  -11.5823  -11.1724 H         1 <0>         0.4141
     50 H14        -2.0793  -12.8476  -12.7435 H         1 <0>         0.1101
     51 H15        -1.3269  -14.0261  -11.6420 H         1 <0>         0.1103
     52 H16        -2.6912  -15.5714  -10.3556 H         1 <0>         0.1201
     53 H17        -4.8170  -16.8070  -10.2253 H         1 <0>         0.1244
     54 H18        -6.7788  -16.0184  -11.4872 H         1 <0>         0.1240
     55 H19        -6.6150  -13.9936  -12.8788 H         1 <0>         0.1243
     56 H20        -4.4914  -12.7532  -13.0025 H         1 <0>         0.1200
     57 H21        -2.4935    0.2461   -1.7728 H         1 <0>         0.4660
@<TRIPOS>BOND
     1    1    2 1
     2    1   37 1
     3    1   38 1
     4    1   39 1
     5    2    6 1
     6    2    3 1
     7    3    4 2
     8    3   40 1
     9    4    5 1
    10    4    7 1
    11    5    6 2
    12    5   57 1
    13    6   41 1
    14    7   11 1
    15    7    8 2
    16    8    9 1
    17    8   42 1
    18    9   15 ar
    19    9   10 ar
    20   10   11 1
    21   10   12 ar
    22   12   13 ar
    23   12   16 1
    24   13   14 ar
    25   13   43 1
    26   14   15 ar
    27   14   44 1
    28   16   17 1
    29   17   22 ar
    30   17   18 ar
    31   18   19 ar
    32   18   45 1
    33   19   20 ar
    34   19   46 1
    35   20   21 ar
    36   20   24 1
    37   21   22 ar
    38   21   47 1
    39   22   23 1
    40   24   25 1
    41   24   48 1
    42   25   26 2
    43   25   27 1
    44   27   28 am
    45   27   49 1
    46   28   29 2
    47   28   30 1
    48   30   31 1
    49   30   50 1
    50   30   51 1
    51   31   36 ar
    52   31   32 ar
    53   32   33 ar
    54   32   52 1
    55   33   34 ar
    56   33   53 1
    57   34   35 ar
    58   34   54 1
    59   35   36 ar
    60   35   55 1
    61   36   56 1
@<TRIPOS>MOLECULE
CHEMBL456456
   53    57     0     0     0
SMALL
USER_CHARGES

@<TRIPOS>ATOM
      1 C1          0.2965    1.4468    0.1628 C.3       1 <0>        -0.0474
      2 N1          0.1550   -0.0128    0.0763 N.4       1 <0>        -0.3849
      3 C2         -1.2590   -0.3759    0.2340 C.3       1 <0>        -0.0226
      4 C3         -1.4235   -1.8856    0.0300 C.3       1 <0>         0.0992
      5 N2         -0.5114   -2.5826    0.9500 N.pl3     1 <0>        -0.6175
      6 C4          0.8995   -2.1668    0.9747 C.3       1 <0>         0.1028
      7 C5          0.9543   -0.6438    1.1342 C.3       1 <0>        -0.0227
      8 C6         -0.9691   -3.6034    1.7717 C.ar      1 <0>         0.3603
      9 C7         -2.2570   -4.1312    1.5771 C.ar      1 <0>         0.0608
     10 N3         -2.7062   -5.0954    2.3440 N.ar      1 <0>        -0.3805
     11 C8         -1.9329   -5.5843    3.3225 C.ar      1 <0>         0.0792
     12 C9         -2.3922   -6.6177    4.1567 C.ar      1 <0>        -0.0736
     13 C10        -1.5919   -7.1017    5.1461 C.ar      1 <0>        -0.1103
     14 C11        -0.3142   -6.5895    5.3509 C.ar      1 <0>        -0.1580
     15 C12         0.1734   -5.5759    4.5546 C.ar      1 <0>         0.2460
     16 C13        -0.6350   -5.0548    3.5207 C.ar      1 <0>         0.1064
     17 N4         -0.1900   -4.0748    2.7265 N.ar      1 <0>        -0.4866
     18 N5          1.4549   -5.0694    4.7678 N.pl3     1 <0>        -0.7186
     19 C14         2.2888   -5.6148    5.8418 C.3       1 <0>         0.1526
     20 C15         3.6156   -4.9004    5.8595 C.ar      1 <0>        -0.0618
     21 C16         4.6697   -5.4039    5.0873 C.ar      1 <0>        -0.0669
     22 C17         5.8840   -4.8079    5.0611 C.ar      1 <0>        -0.0772
     23 C18         6.1089   -3.6388    5.8329 C.ar      1 <0>         0.0851
     24 C19         4.9981   -3.1081    6.6461 C.ar      1 <0>         0.0814
     25 C20         3.7530   -3.7877    6.6167 C.ar      1 <0>        -0.0577
     26 N6          5.4258   -2.0352    7.2705 N.2       1 <0>        -0.2494
     27 O1          6.7796   -1.8283    6.9060 O.3       1 <0>         0.0700
     28 N7          7.1510   -2.8595    6.0075 N.2       1 <0>        -0.2503
     29 C21        -2.0978   -8.2095    6.0338 C.3       1 <0>         0.5085
     30 F1         -3.3953   -8.5616    5.6467 F         1 <0>        -0.1713
     31 F2         -1.2579   -9.3220    5.9159 F         1 <0>        -0.1704
     32 F3         -2.1100   -7.7731    7.3630 F         1 <0>        -0.1708
     33 H1          1.3447    1.7183    0.0379 H         1 <0>         0.1261
     34 H2         -0.2965    1.9165   -0.6220 H         1 <0>         0.1270
     35 H3         -0.0539    1.7887    1.1367 H         1 <0>         0.1220
     36 H4         -1.5941   -0.1059    1.2355 H         1 <0>         0.1340
     37 H5         -1.8560    0.1579   -0.5054 H         1 <0>         0.1472
     38 H6         -2.4522   -2.1744    0.2454 H         1 <0>         0.1301
     39 H7         -1.1748   -2.1454   -0.9990 H         1 <0>         0.1008
     40 H8          1.4066   -2.6415    1.8147 H         1 <0>         0.1350
     41 H9          1.3827   -2.4549    0.0411 H         1 <0>         0.0923
     42 H10         1.9883   -0.3074    1.0580 H         1 <0>         0.1429
     43 H11         0.5523   -0.3657    2.1084 H         1 <0>         0.1327
     44 H12        -2.8826   -3.7389    0.7889 H         1 <0>         0.1747
     45 H13        -3.3809   -7.0280    4.0131 H         1 <0>         0.1561
     46 H14         0.3016   -6.9903    6.1425 H         1 <0>         0.1473
     47 H15         1.7942   -4.3560    4.2050 H         1 <0>         0.4108
     48 H16         1.7870   -5.4730    6.7990 H         1 <0>         0.0879
     49 H17         2.4513   -6.6789    5.6708 H         1 <0>         0.0909
     50 H18         4.5089   -6.2933    4.4962 H         1 <0>         0.1519
     51 H19         6.6781   -5.2201    4.4562 H         1 <0>         0.1561
     52 H20         2.9203   -3.4207    7.1984 H         1 <0>         0.1541
     53 H21         0.4823   -0.3284   -0.8244 H         1 <0>         0.4260
@<TRIPOS>BOND
     1    1    2 1
     2    1   33 1
     3    1   34 1
     4    1   35 1
     5    2    7 1
     6    2    3 1
     7    2   53 1
     8    3    4 1
     9    3   36 1
    10    3   37 1
    11    4    5 1
    12    4   38 1
    13    4   39 1
    14    5    6 1
    15    5    8 1
    16    6    7 1
    17    6   40 1
    18    6   41 1
    19    7   42 1
    20    7   43 1
    21    8   17 ar
    22    8    9 ar
    23    9   10 ar
    24    9   44 1
    25   10   11 ar
    26   11   16 ar
    27   11   12 ar
    28   12   13 ar
    29   12   45 1
    30   13   14 ar
    31   13   29 1
    32   14   15 ar
    33   14   46 1
    34   15   16 ar
    35   15   18 1
    36   16   17 ar
    37   18   19 1
    38   18   47 1
    39   19   20 1
    40   19   48 1
    41   19   49 1
    42   20   25 ar
    43   20   21 ar
    44   21   22 ar
    45   21   50 1
    46   22   23 ar
    47   22   51 1
    48   23   28 2
    49   23   24 ar
    50   24   25 ar
    51   24   26 2
    52   25   52 1
    53   26   27 1
    54   27   28 1
    55   29   30 1
    56   29   31 1
    57   29   32 1
@<TRIPOS>MOLECULE
CHEMBL456456__1
   52    56     0     0     0
SMALL
USER_CHARGES

@<TRIPOS>ATOM
      1 C1          0.2923    1.4475    0.1727 C.3       1 <0>         0.0240
      2 N1          0.1595   -0.0128    0.0846 N.3       1 <0>        -0.5424
      3 C2         -1.2507   -0.4184    0.1540 C.3       1 <0>         0.0382
      4 C3         -1.3605   -1.9218   -0.1220 C.3       1 <0>         0.1229
      5 N2         -0.4627   -2.6330    0.8007 N.pl3     1 <0>        -0.5940
      6 C4          0.9376   -2.1916    0.8877 C.3       1 <0>         0.1281
      7 C5          0.9570   -0.6776    1.1239 C.3       1 <0>         0.0389
      8 C6         -0.9246   -3.6930    1.5688 C.ar      1 <0>         0.3783
      9 C7         -2.1932   -4.2402    1.3115 C.ar      1 <0>         0.0576
     10 N3         -2.6460   -5.2414    2.0271 N.ar      1 <0>        -0.3883
     11 C8         -1.8949   -5.7500    3.0128 C.ar      1 <0>         0.0574
     12 C9         -2.3584   -6.8231    3.7927 C.ar      1 <0>        -0.0656
     13 C10        -1.5807   -7.3266    4.7904 C.ar      1 <0>        -0.1292
     14 C11        -0.3222   -6.7956    5.0570 C.ar      1 <0>        -0.1656
     15 C12         0.1688   -5.7431    4.3151 C.ar      1 <0>         0.2417
     16 C13        -0.6163   -5.2011    3.2741 C.ar      1 <0>         0.1199
     17 N4         -0.1672   -4.1831    2.5316 N.ar      1 <0>        -0.5053
     18 N5          1.4309   -5.2181    4.5899 N.pl3     1 <0>        -0.7218
     19 C14         2.2408   -5.7852    5.6710 C.3       1 <0>         0.1558
     20 C15         3.5500   -5.0443    5.7597 C.ar      1 <0>        -0.0602
     21 C16         4.6401   -5.4965    5.0058 C.ar      1 <0>        -0.0619
     22 C17         5.8410   -4.8745    5.0425 C.ar      1 <0>        -0.0816
     23 C18         6.0141   -3.7304    5.8636 C.ar      1 <0>         0.0884
     24 C19         4.8655   -3.2538    6.6575 C.ar      1 <0>         0.0843
     25 C20         3.6375   -3.9579    6.5611 C.ar      1 <0>        -0.0587
     26 N6          5.2483   -2.1961    7.3346 N.2       1 <0>        -0.2512
     27 O1          6.6085   -1.9474    7.0240 O.3       1 <0>         0.0658
     28 N7          7.0323   -2.9364    6.1016 N.2       1 <0>        -0.2549
     29 C21        -2.0910   -8.4770    5.6195 C.3       1 <0>         0.5105
     30 F1         -3.3667   -8.8416    5.1761 F         1 <0>        -0.1746
     31 F2         -1.2230   -9.5665    5.4897 F         1 <0>        -0.1743
     32 F3         -2.1569   -8.0907    6.9625 F         1 <0>        -0.1745
     33 H1          1.3380    1.7258    0.0423 H         1 <0>         0.0720
     34 H2         -0.3081    1.9147   -0.6079 H         1 <0>         0.0723
     35 H3         -0.0547    1.7856    1.1492 H         1 <0>         0.0268
     36 H4         -1.6431   -0.2014    1.1475 H         1 <0>         0.0404
     37 H5         -1.8244    0.1312   -0.5922 H         1 <0>         0.0931
     38 H6         -2.3872   -2.2498    0.0405 H         1 <0>         0.0906
     39 H7         -1.0659   -2.1276   -1.1510 H         1 <0>         0.0848
     40 H8          1.4303   -2.6980    1.7177 H         1 <0>         0.0975
     41 H9          1.4531   -2.4234   -0.0443 H         1 <0>         0.0753
     42 H10         1.9843   -0.3159    1.0811 H         1 <0>         0.0884
     43 H11         0.5338   -0.4569    2.1038 H         1 <0>         0.0391
     44 H12        -2.8009   -3.8321    0.5174 H         1 <0>         0.1752
     45 H13        -3.3324   -7.2484    3.6008 H         1 <0>         0.1496
     46 H14         0.2758   -7.2125    5.8538 H         1 <0>         0.1407
     47 H15         1.7728   -4.4772    4.0653 H         1 <0>         0.4135
     48 H16         1.7045   -5.6897    6.6151 H         1 <0>         0.0843
     49 H17         2.4325   -6.8387    5.4670 H         1 <0>         0.0873
     50 H18         4.5188   -6.3665    4.3776 H         1 <0>         0.1520
     51 H19         6.6636   -5.2472    4.4503 H         1 <0>         0.1552
     52 H20         2.7780   -3.6303    7.1272 H         1 <0>         0.1542
@<TRIPOS>BOND
     1    1    2 1
     2    1   33 1
     3    1   34 1
     4    1   35 1
     5    2    7 1
     6    2    3 1
     7    3    4 1
     8    3   36 1
     9    3   37 1
    10    4    5 1
    11    4   38 1
    12    4   39 1
    13    5    6 1
    14    5    8 1
    15    6    7 1
    16    6   40 1
    17    6   41 1
    18    7   42 1
    19    7   43 1
    20    8   17 ar
    21    8    9 ar
    22    9   10 ar
    23    9   44 1
    24   10   11 ar
    25   11   16 ar
    26   11   12 ar
    27   12   13 ar
    28   12   45 1
    29   13   14 ar
    30   13   29 1
    31   14   15 ar
    32   14   46 1
    33   15   16 ar
    34   15   18 1
    35   16   17 ar
    36   18   19 1
    37   18   47 1
    38   19   20 1
    39   19   48 1
    40   19   49 1
    41   20   25 ar
    42   20   21 ar
    43   21   22 ar
    44   21   50 1
    45   22   23 ar
    46   22   51 1
    47   23   28 2
    48   23   24 ar
    49   24   25 ar
    50   24   26 2
    51   25   52 1
    52   26   27 1
    53   27   28 1
    54   29   30 1
    55   29   31 1
    56   29   32 1
@<TRIPOS>MOLECULE
CHEMBL550160
   52    57     0     0     0
SMALL
USER_CHARGES

@<TRIPOS>ATOM
      1 C1         -0.0163    1.3487    0.0095 C.ar      1 <0>        -0.0815
      2 C2          1.1629    2.1040    0.0023 C.ar      1 <0>        -0.0427
      3 C3          2.3840    1.5217   -0.0130 C.ar      1 <0>        -0.0914
      4 C4          2.4868    0.1067   -0.0216 C.ar      1 <0>         0.0987
      5 C5          1.2444   -0.6892   -0.0135 C.ar      1 <0>         0.0834
      6 C6          0.0021   -0.0041    0.0020 C.ar      1 <0>        -0.0685
      7 N1          1.5738   -1.9600   -0.0240 N.2       1 <0>        -0.2470
      8 O1          2.9884   -2.0444   -0.0388 O.3       1 <0>         0.0710
      9 N2          3.5034   -0.7241   -0.0366 N.2       1 <0>        -0.2573
     10 C7          3.6284    2.3717   -0.0213 C.3       1 <0>         0.1527
     11 N3          4.0856    2.5546   -1.4010 N.pl3     1 <0>        -0.4762
     12 C8          5.0281    1.7862   -2.0252 C.2       1 <0>         0.0792
     13 C9          5.2137    2.2198   -3.2833 C.2       1 <0>        -0.1862
     14 C10         4.3166    3.3600   -3.4827 C.ar      1 <0>         0.0933
     15 C11         3.6262    3.5226   -2.2657 C.ar      1 <0>         0.0608
     16 C12         2.6867    4.5404   -2.1531 C.ar      1 <0>        -0.0793
     17 C13         2.4660    5.3589   -3.2597 C.ar      1 <0>        -0.0452
     18 C14         3.1875    5.1337   -4.4345 C.ar      1 <0>         0.0937
     19 N4          4.0761    4.1688   -4.5113 N.ar      1 <0>        -0.4393
     20 C15         1.4724    6.4600   -3.1905 C.2       1 <0>        -0.1660
     21 C16         0.6841    6.8006   -2.0742 C.2       1 <0>         0.0740
     22 N5         -0.0644    7.8206   -2.4015 N.2       1 <0>        -0.2817
     23 N6          0.2140    8.1689   -3.7288 N.pl3     1 <0>        -0.3779
     24 C17         1.1613    7.3295   -4.1948 C.2       1 <0>         0.0591
     25 C18        -0.4111    9.2605   -4.4796 C.3       1 <0>         0.1585
     26 C19        -0.5574    8.8536   -5.9487 C.3       1 <0>        -0.1640
     27 C20        -1.1372   10.0266   -6.7420 C.3       1 <0>        -0.0001
     28 N7         -0.2386   11.1827   -6.6401 N.4       1 <0>        -0.5084
     29 C21        -0.1500   11.6231   -5.2427 C.3       1 <0>        -0.0018
     30 C22         0.4679   10.5115   -4.3918 C.3       1 <0>        -0.1643
     31 H1         -0.9672    1.8605    0.0259 H         1 <0>         0.1535
     32 H2          1.0956    3.1819    0.0087 H         1 <0>         0.1460
     33 H3         -0.9241   -0.5595    0.0083 H         1 <0>         0.1560
     34 H4          3.4075    3.3435    0.4201 H         1 <0>         0.1094
     35 H5          4.4091    1.8785    0.5578 H         1 <0>         0.1116
     36 H6          5.5472    0.9537   -1.5737 H         1 <0>         0.1787
     37 H7          5.8962    1.8057   -4.0106 H         1 <0>         0.1581
     38 H8          2.1420    4.6930   -1.2331 H         1 <0>         0.1294
     39 H9          3.0165    5.7674   -5.2922 H         1 <0>         0.1493
     40 H10         0.6958    6.3049   -1.1147 H         1 <0>         0.1895
     41 H11         1.5933    7.3416   -5.1846 H         1 <0>         0.1779
     42 H12        -1.3939    9.4754   -4.0601 H         1 <0>         0.1207
     43 H13         0.4200    8.5891   -6.3522 H         1 <0>         0.1003
     44 H14        -1.2270    7.9968   -6.0241 H         1 <0>         0.1254
     45 H15        -1.2429    9.7401   -7.7883 H         1 <0>         0.1444
     46 H16        -2.1147   10.2901   -6.3378 H         1 <0>         0.1376
     47 H17         0.6795   10.9237   -6.9689 H         1 <0>         0.4301
     48 H18         0.4732   12.5153   -5.1823 H         1 <0>         0.1424
     49 H19        -1.1485   11.8525   -4.8706 H         1 <0>         0.1370
     50 H20         0.5311   10.8398   -3.3543 H         1 <0>         0.1229
     51 H21         1.4666   10.2814   -4.7630 H         1 <0>         0.0969
     52 H22        -0.5964   11.9365   -7.2073 H         1 <0>         0.4373
@<TRIPOS>BOND
     1    1    6 ar
     2    1    2 ar
     3    1   31 1
     4    2    3 ar
     5    2   32 1
     6    3    4 ar
     7    3   10 1
     8    4    9 2
     9    4    5 ar
    10    5    6 ar
    11    5    7 2
    12    6   33 1
    13    7    8 1
    14    8    9 1
    15   10   11 1
    16   10   34 1
    17   10   35 1
    18   11   15 1
    19   11   12 1
    20   12   13 2
    21   12   36 1
    22   13   14 1
    23   13   37 1
    24   14   19 ar
    25   14   15 ar
    26   15   16 ar
    27   16   17 ar
    28   16   38 1
    29   17   18 ar
    30   17   20 1
    31   18   19 ar
    32   18   39 1
    33   20   24 2
    34   20   21 1
    35   21   22 2
    36   21   40 1
    37   22   23 1
    38   23   24 1
    39   23   25 1
    40   24   41 1
    41   25   30 1
    42   25   26 1
    43   25   42 1
    44   26   27 1
    45   26   43 1
    46   26   44 1
    47   27   28 1
    48   27   45 1
    49   27   46 1
    50   28   29 1
    51   28   47 1
    52   28   52 1
    53   29   30 1
    54   29   48 1
    55   29   49 1
    56   30   50 1
    57   30   51 1
@<TRIPOS>MOLECULE
CHEMBL550160__1
   53    58     0     0     0
SMALL
USER_CHARGES

@<TRIPOS>ATOM
      1 C1         -0.0163    1.3487    0.0095 C.ar      1 <0>        -0.0989
      2 C2          1.1629    2.1040    0.0023 C.ar      1 <0>        -0.0241
      3 C3          2.3840    1.5217   -0.0130 C.ar      1 <0>        -0.1140
      4 C4          2.4868    0.1067   -0.0216 C.ar      1 <0>         0.0960
      5 C5          1.2444   -0.6892   -0.0135 C.ar      1 <0>         0.0753
      6 C6          0.0021   -0.0041    0.0020 C.ar      1 <0>        -0.0447
      7 N1          1.5738   -1.9600   -0.0240 N.2       1 <0>        -0.2304
      8 O1          2.9884   -2.0444   -0.0388 O.3       1 <0>         0.0820
      9 N2          3.5034   -0.7241   -0.0366 N.2       1 <0>        -0.2633
     10 C7          3.6284    2.3717   -0.0213 C.3       1 <0>         0.1446
     11 N3          4.0856    2.5546   -1.4010 N.pl3     1 <0>        -0.4531
     12 C8          5.0281    1.7862   -2.0252 C.2       1 <0>         0.1450
     13 C9          5.2137    2.2198   -3.2833 C.2       1 <0>        -0.2022
     14 C10         4.3166    3.3600   -3.4827 C.ar      1 <0>         0.0899
     15 C11         3.6262    3.5226   -2.2657 C.ar      1 <0>         0.0941
     16 C12         2.6867    4.5404   -2.1531 C.ar      1 <0>         0.0046
     17 C13         2.4660    5.3589   -3.2597 C.ar      1 <0>        -0.0040
     18 C14         3.1875    5.1337   -4.4345 C.ar      1 <0>         0.1350
     19 N4          4.0761    4.1688   -4.5113 N.ar      1 <0>        -0.4105
     20 C15         1.4724    6.4600   -3.1905 C.2       1 <0>        -0.2035
     21 C16         0.6841    6.8006   -2.0742 C.2       1 <0>         0.0853
     22 N5         -0.0644    7.8206   -2.4015 N.2       1 <0>        -0.2628
     23 N6          0.2140    8.1689   -3.7288 N.pl3     1 <0>        -0.3623
     24 C17         1.1613    7.3295   -4.1948 C.2       1 <0>         0.0826
     25 C18        -0.4111    9.2605   -4.4796 C.3       1 <0>         0.1501
     26 C19        -0.5574    8.8536   -5.9487 C.3       1 <0>        -0.1622
     27 C20        -1.1372   10.0266   -6.7420 C.3       1 <0>        -0.0017
     28 N7         -0.2386   11.1827   -6.6401 N.4       1 <0>        -0.5089
     29 C21        -0.1500   11.6231   -5.2427 C.3       1 <0>        -0.0035
     30 C22         0.4679   10.5115   -4.3918 C.3       1 <0>        -0.1624
     31 H1         -0.9672    1.8605    0.0259 H         1 <0>         0.1580
     32 H2          1.0956    3.1819    0.0087 H         1 <0>         0.1464
     33 H3         -0.9241   -0.5595    0.0083 H         1 <0>         0.1611
     34 H4          3.4075    3.3435    0.4201 H         1 <0>         0.1239
     35 H5          4.4091    1.8785    0.5578 H         1 <0>         0.1295
     36 H6          5.5472    0.9537   -1.5737 H         1 <0>         0.2056
     37 H7          5.8962    1.8057   -4.0106 H         1 <0>         0.1846
     38 H8          2.1420    4.6930   -1.2331 H         1 <0>         0.1676
     39 H9          3.0165    5.7674   -5.2922 H         1 <0>         0.2006
     40 H10         0.6958    6.3049   -1.1147 H         1 <0>         0.1968
     41 H11         1.5933    7.3416   -5.1846 H         1 <0>         0.1822
     42 H12        -1.3939    9.4754   -4.0601 H         1 <0>         0.1292
     43 H13         0.4200    8.5891   -6.3522 H         1 <0>         0.0977
     44 H14        -1.2270    7.9968   -6.0241 H         1 <0>         0.1267
     45 H15        -1.2429    9.7401   -7.7883 H         1 <0>         0.1474
     46 H16        -2.1147   10.2901   -6.3378 H         1 <0>         0.1410
     47 H17         0.6795   10.9237   -6.9689 H         1 <0>         0.4291
     48 H18         0.4732   12.5153   -5.1823 H         1 <0>         0.1463
     49 H19        -1.1485   11.8525   -4.8706 H         1 <0>         0.1403
     50 H20         0.5311   10.8398   -3.3543 H         1 <0>         0.1257
     51 H21         1.4666   10.2814   -4.7630 H         1 <0>         0.0962
     52 H22        -0.5964   11.9365   -7.2073 H         1 <0>         0.4416
     53 H23         4.5605    4.0362   -5.3412 H         1 <0>         0.4501
@<TRIPOS>BOND
     1    1    6 ar
     2    1    2 ar
     3    1   31 1
     4    2    3 ar
     5    2   32 1
     6    3    4 ar
     7    3   10 1
     8    4    9 2
     9    4    5 ar
    10    5    6 ar
    11    5    7 2
    12    6   33 1
    13    7    8 1
    14    8    9 1
    15   10   11 1
    16   10   34 1
    17   10   35 1
    18   11   15 1
    19   11   12 1
    20   12   13 2
    21   12   36 1
    22   13   14 1
    23   13   37 1
    24   14   19 ar
    25   14   15 ar
    26   15   16 ar
    27   16   17 ar
    28   16   38 1
    29   17   18 ar
    30   17   20 1
    31   18   19 ar
    32   18   39 1
    33   19   53 1
    34   20   24 2
    35   20   21 1
    36   21   22 2
    37   21   40 1
    38   22   23 1
    39   23   24 1
    40   23   25 1
    41   24   41 1
    42   25   30 1
    43   25   26 1
    44   25   42 1
    45   26   27 1
    46   26   43 1
    47   26   44 1
    48   27   28 1
    49   27   45 1
    50   27   46 1
    51   28   29 1
    52   28   47 1
    53   28   52 1
    54   29   30 1
    55   29   48 1
    56   29   49 1
    57   30   50 1
    58   30   51 1
@<TRIPOS>MOLECULE
CHEMBL540744
   33    35     0     0     0
SMALL
USER_CHARGES

@<TRIPOS>ATOM
      1 C1         -0.0337    1.3401   -0.0956 C.ar      1 <0>        -0.0617
      2 C2          1.1273    2.0841    0.0045 C.ar      1 <0>        -0.1182
      3 C3          2.3506    1.4473    0.0946 C.ar      1 <0>        -0.0513
      4 C4          2.4133    0.0662    0.0851 C.ar      1 <0>        -0.0488
      5 C5          1.2527   -0.6777   -0.0140 C.ar      1 <0>        -0.0169
      6 C6          0.0290   -0.0406   -0.1056 C.ar      1 <0>        -0.1166
      7 C7          1.3211   -2.1831   -0.0254 C.3       1 <0>        -0.1224
      8 C8          1.3326   -2.7039    1.4132 C.3       1 <0>         0.1281
      9 N1          1.3991   -4.1674    1.4022 N.pl3     1 <0>        -0.4781
     10 C9          0.3210   -5.0034    1.4784 C.2       1 <0>         0.0638
     11 C10         0.7295   -6.2828    1.4420 C.2       1 <0>        -0.1887
     12 C11         2.1896   -6.2652    1.3336 C.ar      1 <0>         0.0874
     13 C12         2.5565   -4.9061    1.3076 C.ar      1 <0>         0.0507
     14 C13         3.9037   -4.5740    1.2028 C.ar      1 <0>        -0.0749
     15 C14         4.8279   -5.6006    1.1252 C.ar      1 <0>        -0.1595
     16 C15         4.3951   -6.9173    1.1534 C.ar      1 <0>         0.0904
     17 N2          3.1179   -7.2145    1.2602 N.ar      1 <0>        -0.4549
     18 N3          3.7236   -0.6159    0.1806 N.pl3     1 <0>         0.0372
     19 O1          4.7448    0.0309    0.1583 O.2       1 <0>        -0.1507
     20 O2          3.7725   -1.8197    0.2810 O.3       1 <0>        -0.1668
     21 H1         -0.9900    1.8377   -0.1615 H         1 <0>         0.1462
     22 H2          1.0783    3.1630    0.0119 H         1 <0>         0.1498
     23 H3          3.2576    2.0285    0.1720 H         1 <0>         0.1556
     24 H4         -0.8779   -0.6218   -0.1835 H         1 <0>         0.1484
     25 H5          0.4527   -2.5823   -0.5494 H         1 <0>         0.0893
     26 H6          2.2308   -2.5016   -0.5344 H         1 <0>         0.1143
     27 H7          2.2009   -2.3047    1.9373 H         1 <0>         0.0868
     28 H8          0.4229   -2.3854    1.9222 H         1 <0>         0.0919
     29 H9         -0.7074   -4.6830    1.5566 H         1 <0>         0.1743
     30 H10         0.0996   -7.1591    1.4847 H         1 <0>         0.1537
     31 H11         4.2196   -3.5415    1.1821 H         1 <0>         0.1461
     32 H12         5.8813   -5.3772    1.0427 H         1 <0>         0.1387
     33 H13         5.1209   -7.7147    1.0921 H         1 <0>         0.1565
@<TRIPOS>BOND
     1    1    6 ar
     2    1    2 ar
     3    1   21 1
     4    2    3 ar
     5    2   22 1
     6    3    4 ar
     7    3   23 1
     8    4    5 ar
     9    4   18 1
    10    5    6 ar
    11    5    7 1
    12    6   24 1
    13    7    8 1
    14    7   25 1
    15    7   26 1
    16    8    9 1
    17    8   27 1
    18    8   28 1
    19    9   13 1
    20    9   10 1
    21   10   11 2
    22   10   29 1
    23   11   12 1
    24   11   30 1
    25   12   17 ar
    26   12   13 ar
    27   13   14 ar
    28   14   15 ar
    29   14   31 1
    30   15   16 ar
    31   15   32 1
    32   16   17 ar
    33   16   33 1
    34   18   19 2
    35   18   20 1
@<TRIPOS>MOLECULE
CHEMBL540744__1
   34    36     0     0     0
SMALL
USER_CHARGES

@<TRIPOS>ATOM
      1 C1         -0.0337    1.3401   -0.0956 C.ar      1 <0>        -0.0568
      2 C2          1.1273    2.0841    0.0045 C.ar      1 <0>        -0.1092
      3 C3          2.3506    1.4473    0.0946 C.ar      1 <0>        -0.0476
      4 C4          2.4133    0.0662    0.0851 C.ar      1 <0>        -0.0481
      5 C5          1.2527   -0.6777   -0.0140 C.ar      1 <0>        -0.0285
      6 C6          0.0290   -0.0406   -0.1056 C.ar      1 <0>        -0.1131
      7 C7          1.3211   -2.1831   -0.0254 C.3       1 <0>        -0.1197
      8 C8          1.3326   -2.7039    1.4132 C.3       1 <0>         0.1125
      9 N1          1.3991   -4.1674    1.4022 N.pl3     1 <0>        -0.4518
     10 C9          0.3210   -5.0034    1.4784 C.2       1 <0>         0.1292
     11 C10         0.7295   -6.2828    1.4420 C.2       1 <0>        -0.2054
     12 C11         2.1896   -6.2652    1.3336 C.ar      1 <0>         0.0869
     13 C12         2.5565   -4.9061    1.3076 C.ar      1 <0>         0.0779
     14 C13         3.9037   -4.5740    1.2028 C.ar      1 <0>         0.0252
     15 C14         4.8279   -5.6006    1.1252 C.ar      1 <0>        -0.1427
     16 C15         4.3951   -6.9173    1.1534 C.ar      1 <0>         0.1559
     17 N2          3.1179   -7.2145    1.2602 N.ar      1 <0>        -0.4272
     18 N3          3.7236   -0.6159    0.1806 N.pl3     1 <0>         0.0442
     19 O1          4.7448    0.0309    0.1583 O.2       1 <0>        -0.1314
     20 O2          3.7725   -1.8197    0.2810 O.3       1 <0>        -0.2004
     21 H1         -0.9900    1.8377   -0.1615 H         1 <0>         0.1507
     22 H2          1.0783    3.1630    0.0119 H         1 <0>         0.1548
     23 H3          3.2576    2.0285    0.1720 H         1 <0>         0.1595
     24 H4         -0.8779   -0.6218   -0.1835 H         1 <0>         0.1501
     25 H5          0.4527   -2.5823   -0.5494 H         1 <0>         0.0944
     26 H6          2.2308   -2.5016   -0.5344 H         1 <0>         0.1148
     27 H7          2.2009   -2.3047    1.9373 H         1 <0>         0.1018
     28 H8          0.4229   -2.3854    1.9222 H         1 <0>         0.1123
     29 H9         -0.7074   -4.6830    1.5566 H         1 <0>         0.2023
     30 H10         0.0996   -7.1591    1.4847 H         1 <0>         0.1803
     31 H11         4.2196   -3.5415    1.1821 H         1 <0>         0.1825
     32 H12         5.8813   -5.3772    1.0427 H         1 <0>         0.1893
     33 H13         5.1209   -7.7147    1.0921 H         1 <0>         0.2107
     34 H14         2.8469   -8.1457    1.2763 H         1 <0>         0.4465
@<TRIPOS>BOND
     1    1    6 ar
     2    1    2 ar
     3    1   21 1
     4    2    3 ar
     5    2   22 1
     6    3    4 ar
     7    3   23 1
     8    4    5 ar
     9    4   18 1
    10    5    6 ar
    11    5    7 1
    12    6   24 1
    13    7    8 1
    14    7   25 1
    15    7   26 1
    16    8    9 1
    17    8   27 1
    18    8   28 1
    19    9   13 1
    20    9   10 1
    21   10   11 2
    22   10   29 1
    23   11   12 1
    24   11   30 1
    25   12   17 ar
    26   12   13 ar
    27   13   14 ar
    28   14   15 ar
    29   14   31 1
    30   15   16 ar
    31   15   32 1
    32   16   17 ar
    33   16   33 1
    34   17   34 1
    35   18   19 2
    36   18   20 1
@<TRIPOS>MOLECULE
CHEMBL1095034
   59    64     0     0     0
SMALL
USER_CHARGES

@<TRIPOS>ATOM
      1 C1         -1.1714   -0.3147    1.0418 C.3       1 <0>         0.0606
      2 N1          0.0583   -0.4846    0.2638 N.pl3     1 <0>        -0.4507
      3 C2          0.1643   -1.0490   -0.9786 C.2       1 <0>        -0.0318
      4 C3          1.4681   -1.0047   -1.3236 C.2       1 <0>        -0.0194
      5 N2          2.1499   -0.4310   -0.3268 N.2       1 <0>        -0.4525
      6 C4          1.3158   -0.1046    0.6380 C.2       1 <0>         0.2623
      7 C5          1.6771    0.5540    1.9050 C.2       1 <0>        -0.0374
      8 C6          2.9100    0.7125    2.4568 C.2       1 <0>        -0.1013
      9 C7          3.0478    1.3785    3.6881 C.ar      1 <0>         0.1597
     10 C8          1.8436    1.8410    4.2630 C.ar      1 <0>        -0.2052
     11 S1          0.6060    1.3479    3.0914 S.3       1 <0>         0.1067
     12 C9          1.8229    2.5135    5.4719 C.ar      1 <0>         0.2118
     13 C10         3.0373    2.7278    6.1203 C.ar      1 <0>        -0.2340
     14 C11         4.1952    2.2580    5.5225 C.ar      1 <0>         0.1606
     15 N3          4.1860    1.6249    4.3773 N.ar      1 <0>        -0.4724
     16 O1          0.6558    2.9514    6.0094 O.3       1 <0>        -0.2366
     17 C12         0.6937    3.5118    7.2480 C.ar      1 <0>         0.0227
     18 C13         0.4715    2.7282    8.3705 C.ar      1 <0>        -0.0672
     19 C14         0.5099    3.2964    9.6287 C.ar      1 <0>        -0.1387
     20 C15         0.7710    4.6529    9.7711 C.ar      1 <0>         0.1895
     21 C16         0.9936    5.4383    8.6479 C.ar      1 <0>        -0.1469
     22 C17         0.9607    4.8679    7.3889 C.ar      1 <0>         0.1226
     23 F1          1.1830    5.6300    6.2957 F         1 <0>        -0.1197
     24 N4          0.8093    5.2286   11.0470 N.am      1 <0>        -0.6637
     25 C18         0.3594    6.4853   11.2331 C.2       1 <0>         0.5902
     26 O2         -0.0133    7.1449   10.2817 O.2       1 <0>        -0.4950
     27 C19         0.3191    7.0604   12.5896 C.2       1 <0>        -0.2272
     28 C20         0.7225    6.4214   13.7840 C.2       1 <0>         0.0887
     29 N5          0.5355    7.2537   14.7713 N.2       1 <0>        -0.2454
     30 N6          0.0113    8.4481   14.2647 N.pl3     1 <0>        -0.2682
     31 C21        -0.1140    8.3263   12.9305 C.2       1 <0>         0.0560
     32 C22        -0.6344    9.3767   11.9835 C.3       1 <0>         0.5331
     33 F2          0.4295   10.1637   11.5296 F         1 <0>        -0.1603
     34 F3         -1.2536    8.7560   10.8932 F         1 <0>        -0.1270
     35 F4         -1.5623   10.1855   12.6483 F         1 <0>        -0.1655
     36 C23        -0.3223    9.5814   15.0188 C.ar      1 <0>         0.1120
     37 C24        -0.1406   10.8503   14.4851 C.ar      1 <0>        -0.1130
     38 C25        -0.4707   11.9652   15.2306 C.ar      1 <0>        -0.0968
     39 C26        -0.9817   11.8186   16.5071 C.ar      1 <0>        -0.1005
     40 C27        -1.1634   10.5563   17.0415 C.ar      1 <0>        -0.1036
     41 C28        -0.8405    9.4374   16.2988 C.ar      1 <0>        -0.0896
     42 H1         -1.6246    0.6466    0.7996 H         1 <0>         0.0863
     43 H2         -1.8686   -1.1166    0.7991 H         1 <0>         0.0980
     44 H3         -0.9358   -0.3476    2.1055 H         1 <0>         0.0903
     45 H4         -0.6430   -1.4535   -1.5711 H         1 <0>         0.1851
     46 H5          1.8895   -1.3708   -2.2482 H         1 <0>         0.1804
     47 H6          3.7824    0.3270    1.9503 H         1 <0>         0.1607
     48 H7          3.0751    3.2478    7.0661 H         1 <0>         0.1494
     49 H8          5.1402    2.4209    6.0193 H         1 <0>         0.1691
     50 H9          0.2681    1.6733    8.2607 H         1 <0>         0.1501
     51 H10         0.3364    2.6855   10.5023 H         1 <0>         0.1473
     52 H11         1.1967    6.4933    8.7580 H         1 <0>         0.1631
     53 H12         1.1596    4.7228   11.7969 H         1 <0>         0.4173
     54 H13         1.1166    5.4192   13.8653 H         1 <0>         0.2110
     55 H14         0.2588   10.9654   13.4883 H         1 <0>         0.1291
     56 H15        -0.3293   12.9524   14.8162 H         1 <0>         0.1403
     57 H16        -1.2391   12.6919   17.0881 H         1 <0>         0.1367
     58 H17        -1.5620   10.4450   18.0391 H         1 <0>         0.1397
     59 H18        -0.9871    8.4516   16.7149 H         1 <0>         0.1390
@<TRIPOS>BOND
     1    1    2 1
     2    1   42 1
     3    1   43 1
     4    1   44 1
     5    2    6 1
     6    2    3 1
     7    3    4 2
     8    3   45 1
     9    4    5 1
    10    4   46 1
    11    5    6 2
    12    6    7 1
    13    7   11 1
    14    7    8 2
    15    8    9 1
    16    8   47 1
    17    9   15 ar
    18    9   10 ar
    19   10   11 1
    20   10   12 ar
    21   12   13 ar
    22   12   16 1
    23   13   14 ar
    24   13   48 1
    25   14   15 ar
    26   14   49 1
    27   16   17 1
    28   17   22 ar
    29   17   18 ar
    30   18   19 ar
    31   18   50 1
    32   19   20 ar
    33   19   51 1
    34   20   21 ar
    35   20   24 1
    36   21   22 ar
    37   21   52 1
    38   22   23 1
    39   24   25 am
    40   24   53 1
    41   25   26 2
    42   25   27 1
    43   27   31 2
    44   27   28 1
    45   28   29 2
    46   28   54 1
    47   29   30 1
    48   30   31 1
    49   30   36 1
    50   31   32 1
    51   32   33 1
    52   32   34 1
    53   32   35 1
    54   36   41 ar
    55   36   37 ar
    56   37   38 ar
    57   37   55 1
    58   38   39 ar
    59   38   56 1
    60   39   40 ar
    61   39   57 1
    62   40   41 ar
    63   40   58 1
    64   41   59 1
@<TRIPOS>MOLECULE
CHEMBL1095034__1
   60    65     0     0     0
SMALL
USER_CHARGES

@<TRIPOS>ATOM
      1 C1         -0.9574   -0.7557    1.2617 C.3       1 <0>         0.0465
      2 N1          0.2379   -0.8850    0.4246 N.pl3     1 <0>        -0.3973
      3 C2          0.2825   -1.3343   -0.8675 C.2       1 <0>         0.0361
      4 C3          1.5738   -1.2925   -1.2569 C.2       1 <0>         0.0172
      5 N2          2.3077   -0.8318   -0.2387 N.pl3     1 <0>        -0.4641
      6 C4          1.5188   -0.5745    0.7834 C.cat     1 <0>         0.3951
      7 C5          1.9448   -0.0461    2.0906 C.2       1 <0>        -0.1724
      8 C6          3.0991   -0.2883    2.7678 C.2       1 <0>        -0.0301
      9 C7          3.3211    0.3194    4.0169 C.ar      1 <0>         0.1267
     10 C8          2.2823    1.1605    4.4728 C.ar      1 <0>        -0.1828
     11 S1          1.0772    1.0763    3.1735 S.3       1 <0>         0.1798
     12 C9          2.3597    1.8257    5.6835 C.ar      1 <0>         0.2082
     13 C10         3.5051    1.6440    6.4557 C.ar      1 <0>        -0.2030
     14 C11         4.5004    0.8108    5.9721 C.ar      1 <0>         0.1689
     15 N3          4.4012    0.1938    4.8224 N.ar      1 <0>        -0.4605
     16 O1          1.3514    2.6307    6.1056 O.3       1 <0>        -0.2314
     17 C12         1.4444    3.1713    7.3500 C.ar      1 <0>         0.0069
     18 C13         0.8658    2.5246    8.4318 C.ar      1 <0>        -0.0635
     19 C14         0.9596    3.0728    9.6960 C.ar      1 <0>        -0.1388
     20 C15         1.6336    4.2722    9.8850 C.ar      1 <0>         0.2010
     21 C16         2.2133    4.9206    8.8027 C.ar      1 <0>        -0.1473
     22 C17         2.1239    4.3684    7.5382 C.ar      1 <0>         0.1258
     23 F1          2.6927    4.9954    6.4853 F         1 <0>        -0.1202
     24 N4          1.7281    4.8279   11.1669 N.am      1 <0>        -0.6657
     25 C18         1.6969    6.1660   11.3253 C.2       1 <0>         0.5930
     26 O2          1.6586    6.8929   10.3510 O.2       1 <0>        -0.4946
     27 C19         1.7092    6.7483   12.6793 C.2       1 <0>        -0.2328
     28 C20         1.7582    6.0354   13.8987 C.2       1 <0>         0.0883
     29 N5          1.7542    6.9016   14.8744 N.2       1 <0>        -0.2435
     30 N6          1.7031    8.1919   14.3352 N.pl3     1 <0>        -0.2645
     31 C21         1.6810    8.0925   12.9936 C.2       1 <0>         0.0584
     32 C22         1.6312    9.2370   12.0146 C.3       1 <0>         0.5330
     33 F2          2.9340    9.6249   11.6839 F         1 <0>        -0.1601
     34 F3          0.9573    8.8319   10.8574 F         1 <0>        -0.1286
     35 F4          0.9559   10.3169   12.5935 F         1 <0>        -0.1639
     36 C23         1.6832    9.3861   15.0686 C.ar      1 <0>         0.1080
     37 C24         2.3226   10.5158   14.5759 C.ar      1 <0>        -0.1125
     38 C25         2.3008   11.6913   15.3007 C.ar      1 <0>        -0.0966
     39 C26         1.6432   11.7438   16.5160 C.ar      1 <0>        -0.0981
     40 C27         1.0059   10.6202   17.0096 C.ar      1 <0>        -0.1029
     41 C28         1.0193    9.4434   16.2867 C.ar      1 <0>        -0.0883
     42 H1         -1.3903    0.2354    1.1264 H         1 <0>         0.1156
     43 H2         -1.6865   -1.5130    0.9735 H         1 <0>         0.1279
     44 H3         -0.6848   -0.8934    2.3080 H         1 <0>         0.1138
     45 H4         -0.5573   -1.6607   -1.4630 H         1 <0>         0.2309
     46 H5          1.9506   -1.5821   -2.2267 H         1 <0>         0.2311
     47 H6          3.8445   -0.9469    2.3472 H         1 <0>         0.1610
     48 H7          3.6144    2.1411    7.4082 H         1 <0>         0.1604
     49 H8          5.3912    0.6657    6.5653 H         1 <0>         0.1801
     50 H9          0.3411    1.5920    8.2856 H         1 <0>         0.1505
     51 H10         0.5084    2.5687   10.5378 H         1 <0>         0.1505
     52 H11         2.7375    5.8534    8.9491 H         1 <0>         0.1662
     53 H12         1.8160    4.2498   11.9408 H         1 <0>         0.4192
     54 H13         1.7930    4.9611   14.0044 H         1 <0>         0.2106
     55 H14         2.8366   10.4753   13.6269 H         1 <0>         0.1286
     56 H15         2.7982   12.5703   14.9181 H         1 <0>         0.1411
     57 H16         1.6276   12.6641   17.0810 H         1 <0>         0.1380
     58 H17         0.4938   10.6641   17.9594 H         1 <0>         0.1408
     59 H18         0.5173    8.5675   16.6705 H         1 <0>         0.1393
     60 H19         3.2690   -0.7033   -0.2524 H         1 <0>         0.4652
@<TRIPOS>BOND
     1    1    2 1
     2    1   42 1
     3    1   43 1
     4    1   44 1
     5    2    6 1
     6    2    3 1
     7    3    4 2
     8    3   45 1
     9    4    5 1
    10    4   46 1
    11    5    6 2
    12    5   60 1
    13    6    7 1
    14    7   11 1
    15    7    8 2
    16    8    9 1
    17    8   47 1
    18    9   15 ar
    19    9   10 ar
    20   10   11 1
    21   10   12 ar
    22   12   13 ar
    23   12   16 1
    24   13   14 ar
    25   13   48 1
    26   14   15 ar
    27   14   49 1
    28   16   17 1
    29   17   22 ar
    30   17   18 ar
    31   18   19 ar
    32   18   50 1
    33   19   20 ar
    34   19   51 1
    35   20   21 ar
    36   20   24 1
    37   21   22 ar
    38   21   52 1
    39   22   23 1
    40   24   25 am
    41   24   53 1
    42   25   26 2
    43   25   27 1
    44   27   31 2
    45   27   28 1
    46   28   29 2
    47   28   54 1
    48   29   30 1
    49   30   31 1
    50   30   36 1
    51   31   32 1
    52   32   33 1
    53   32   34 1
    54   32   35 1
    55   36   41 ar
    56   36   37 ar
    57   37   38 ar
    58   37   55 1
    59   38   39 ar
    60   38   56 1
    61   39   40 ar
    62   39   57 1
    63   40   41 ar
    64   40   58 1
    65   41   59 1
@<TRIPOS>MOLECULE
CHEMBL191003
   39    41     0     0     0
SMALL
USER_CHARGES

@<TRIPOS>ATOM
      1 C1         -0.0095    1.3826    0.0704 C.ar      1 <0>        -0.0343
      2 C2          0.5587    1.0580   -1.1482 C.ar      1 <0>        -0.1609
      3 C3          1.7655    0.3862   -1.1955 C.ar      1 <0>         0.1753
      4 C4          2.4129    0.0342   -0.0053 C.ar      1 <0>        -0.1954
      5 C5          1.8304    0.3669    1.2233 C.ar      1 <0>         0.1741
      6 C6          0.6231    1.0388    1.2514 C.ar      1 <0>        -0.1610
      7 F1          2.4463    0.0317    2.3781 F         1 <0>        -0.1212
      8 C7          3.6999   -0.6827   -0.0456 C.2       1 <0>         0.6210
      9 O1          4.7383   -0.0615   -0.1600 O.2       1 <0>        -0.4669
     10 N1          3.7255   -2.0272    0.0446 N.am      1 <0>        -0.3962
     11 C8          4.8314   -2.8210    0.1249 C.2       1 <0>         0.5948
     12 N2          4.4249   -4.0694    0.1979 N.2       1 <0>        -0.5873
     13 C9          3.0869   -4.1118    0.1675 C.2       1 <0>         0.5191
     14 N3          2.6183   -2.8904    0.0808 N.2       1 <0>        -0.3480
     15 N4          2.3148   -5.2702    0.2247 N.pl3     1 <0>        -0.6226
     16 C10         2.9267   -6.5079    0.4407 C.ar      1 <0>         0.2365
     17 C11         4.1432   -6.5760    1.1080 C.ar      1 <0>        -0.1584
     18 C12         4.7450   -7.8008    1.3202 C.ar      1 <0>         0.0098
     19 C13         4.1379   -8.9586    0.8692 C.ar      1 <0>        -0.7033
     20 C14         2.9269   -8.8944    0.2046 C.ar      1 <0>         0.0112
     21 C15         2.3170   -7.6734   -0.0063 C.ar      1 <0>        -0.1777
     22 S1          4.9094  -10.5191    1.1415 S.o2      1 <0>         2.7034
     23 O2          4.4084  -11.3993    0.1448 O.2       1 <0>        -0.9656
     24 O3          6.2977  -10.2630    1.3036 O.2       1 <0>        -0.9650
     25 N5          4.3605  -11.0895    2.5960 N.pl3     1 <0>        -1.2510
     26 N6          6.1422   -2.3912    0.1281 N.pl3     1 <0>        -0.7911
     27 F2          2.3185    0.0697   -2.3868 F         1 <0>        -0.1201
     28 H1         -0.9506    1.9116    0.0998 H         1 <0>         0.1546
     29 H2          0.0576    1.3300   -2.0654 H         1 <0>         0.1549
     30 H3          0.1721    1.2963    2.1984 H         1 <0>         0.1546
     31 H4          1.3525   -5.2176    0.1147 H         1 <0>         0.4325
     32 H5          4.6180   -5.6722    1.4601 H         1 <0>         0.1556
     33 H6          5.6909   -7.8544    1.8385 H         1 <0>         0.1456
     34 H7          2.4556   -9.8005   -0.1466 H         1 <0>         0.1475
     35 H8          1.3691   -7.6243   -0.5215 H         1 <0>         0.1387
     36 H9          3.7284  -10.5673    3.1145 H         1 <0>         0.4165
     37 H10         4.6709  -11.9458    2.9296 H         1 <0>         0.4206
     38 H11         6.3422   -1.4439    0.0694 H         1 <0>         0.4292
     39 H12         6.8640   -3.0364    0.1890 H         1 <0>         0.4303
@<TRIPOS>BOND
     1    1    6 ar
     2    1    2 ar
     3    1   28 1
     4    2    3 ar
     5    2   29 1
     6    3    4 ar
     7    3   27 1
     8    4    5 ar
     9    4    8 1
    10    5    6 ar
    11    5    7 1
    12    6   30 1
    13    8    9 2
    14    8   10 am
    15   10   14 1
    16   10   11 1
    17   11   12 2
    18   11   26 1
    19   12   13 1
    20   13   14 2
    21   13   15 1
    22   15   16 1
    23   15   31 1
    24   16   21 ar
    25   16   17 ar
    26   17   18 ar
    27   17   32 1
    28   18   19 ar
    29   18   33 1
    30   19   20 ar
    31   19   22 1
    32   20   21 ar
    33   20   34 1
    34   21   35 1
    35   22   23 2
    36   22   24 2
    37   22   25 1
    38   25   36 1
    39   25   37 1
    40   26   38 1
    41   26   39 1
@<TRIPOS>MOLECULE
CHEMBL1098157
   52    56     0     0     0
SMALL
USER_CHARGES

@<TRIPOS>ATOM
      1 C1          1.0145    0.3467    1.0993 C.3       1 <0>         0.0698
      2 N1          0.0351   -0.1220    0.1158 N.pl3     1 <0>        -0.4614
      3 C2          0.2327   -1.0955   -0.8221 C.2       1 <0>        -0.0135
      4 C3         -0.9308   -1.2092   -1.5190 C.2       1 <0>         0.0613
      5 N2         -1.8064   -0.3194   -1.0059 N.2       1 <0>        -0.4686
      6 C4         -1.2373    0.3268   -0.0276 C.2       1 <0>         0.1964
      7 C5         -1.1891   -2.1402   -2.6381 C.2       1 <0>        -0.0125
      8 C6         -2.3236   -2.2912   -3.3690 C.2       1 <0>        -0.1343
      9 C7         -2.3715   -3.2431   -4.4046 C.ar      1 <0>         0.1646
     10 C8         -1.1860   -3.9856   -4.5973 C.ar      1 <0>        -0.2088
     11 S1         -0.0844   -3.3374   -3.3668 S.3       1 <0>         0.1020
     12 C9         -1.0838   -4.9558   -5.5767 C.ar      1 <0>         0.2116
     13 C10        -2.1963   -5.1888   -6.3838 C.ar      1 <0>        -0.2386
     14 C11        -3.3390   -4.4394   -6.1621 C.ar      1 <0>         0.1594
     15 N3         -3.4080   -3.5259   -5.2268 N.ar      1 <0>        -0.4778
     16 O1          0.0645   -5.6595   -5.7476 O.3       1 <0>        -0.2371
     17 C12         0.0666   -6.6658   -6.6624 C.ar      1 <0>         0.0234
     18 C13        -0.1679   -7.9714   -6.2575 C.ar      1 <0>        -0.0653
     19 C14        -0.1661   -8.9940   -7.1857 C.ar      1 <0>        -0.1403
     20 C15         0.0710   -8.7159   -8.5255 C.ar      1 <0>         0.1918
     21 C16         0.3059   -7.4093   -8.9321 C.ar      1 <0>        -0.1478
     22 C17         0.2978   -6.3851   -8.0033 C.ar      1 <0>         0.1222
     23 F1          0.5208   -5.1126   -8.3986 F         1 <0>        -0.1201
     24 N4          0.0737   -9.7533   -9.4662 N.am      1 <0>        -0.6648
     25 C18        -0.3719   -9.5288  -10.7181 C.2       1 <0>         0.5889
     26 O2         -0.8612   -8.4532  -11.0057 O.2       1 <0>        -0.4965
     27 C19        -0.2664  -10.5871  -11.7389 C.2       1 <0>        -0.2362
     28 C20         0.2693  -11.8813  -11.5530 C.2       1 <0>         0.0849
     29 N5          0.1854  -12.5196  -12.6876 N.2       1 <0>        -0.2531
     30 N6         -0.3993  -11.6770  -13.6396 N.pl3     1 <0>        -0.3205
     31 C21        -0.6778  -10.5013  -13.0539 C.2       1 <0>         0.0559
     32 C22        -1.3187   -9.3066  -13.7119 C.3       1 <0>         0.5356
     33 F2         -2.1783   -9.7389  -14.7275 F         1 <0>        -0.1738
     34 F3         -2.0471   -8.5849  -12.7602 F         1 <0>        -0.1285
     35 F4         -0.3257   -8.4869  -14.2589 F         1 <0>        -0.1616
     36 C23        -0.6672  -12.0214  -15.0381 C.3       1 <0>         0.0807
     37 H1          0.9308   -0.2496    2.0080 H         1 <0>         0.0823
     38 H2          2.0191    0.2444    0.6889 H         1 <0>         0.0895
     39 H3          0.8223    1.3938    1.3329 H         1 <0>         0.0933
     40 H4          1.1370   -1.6644   -0.9801 H         1 <0>         0.1824
     41 H5         -1.7022    1.0969    0.5701 H         1 <0>         0.2145
     42 H6         -3.1889   -1.6812   -3.1555 H         1 <0>         0.1543
     43 H7         -2.1673   -5.9357   -7.1633 H         1 <0>         0.1476
     44 H8         -4.2048   -4.6144   -6.7835 H         1 <0>         0.1667
     45 H9         -0.3517   -8.1885   -5.2156 H         1 <0>         0.1503
     46 H10        -0.3487  -10.0104   -6.8694 H         1 <0>         0.1466
     47 H11         0.4906   -7.1925   -9.9738 H         1 <0>         0.1579
     48 H12         0.3963  -10.6334   -9.2167 H         1 <0>         0.4168
     49 H13         0.6772  -12.2732  -10.6330 H         1 <0>         0.2061
     50 H14        -1.6643  -12.4538  -15.1212 H         1 <0>         0.0969
     51 H15        -0.6090  -11.1221  -15.6513 H         1 <0>         0.0986
     52 H16         0.0723  -12.7444  -15.3823 H         1 <0>         0.1090
@<TRIPOS>BOND
     1    1    2 1
     2    1   37 1
     3    1   38 1
     4    1   39 1
     5    2    6 1
     6    2    3 1
     7    3    4 2
     8    3   40 1
     9    4    5 1
    10    4    7 1
    11    5    6 2
    12    6   41 1
    13    7   11 1
    14    7    8 2
    15    8    9 1
    16    8   42 1
    17    9   15 ar
    18    9   10 ar
    19   10   11 1
    20   10   12 ar
    21   12   13 ar
    22   12   16 1
    23   13   14 ar
    24   13   43 1
    25   14   15 ar
    26   14   44 1
    27   16   17 1
    28   17   22 ar
    29   17   18 ar
    30   18   19 ar
    31   18   45 1
    32   19   20 ar
    33   19   46 1
    34   20   21 ar
    35   20   24 1
    36   21   22 ar
    37   21   47 1
    38   22   23 1
    39   24   25 am
    40   24   48 1
    41   25   26 2
    42   25   27 1
    43   27   31 2
    44   27   28 1
    45   28   29 2
    46   28   49 1
    47   29   30 1
    48   30   31 1
    49   30   36 1
    50   31   32 1
    51   32   33 1
    52   32   34 1
    53   32   35 1
    54   36   50 1
    55   36   51 1
    56   36   52 1
@<TRIPOS>MOLECULE
CHEMBL1098157__1
   53    57     0     0     0
SMALL
USER_CHARGES

@<TRIPOS>ATOM
      1 C1          1.0145    0.3467    1.0993 C.3       1 <0>         0.0540
      2 N1          0.0351   -0.1220    0.1158 N.pl3     1 <0>        -0.4063
      3 C2          0.2327   -1.0955   -0.8221 C.2       1 <0>         0.0494
      4 C3         -0.9308   -1.2092   -1.5190 C.2       1 <0>         0.1233
      5 N2         -1.8064   -0.3194   -1.0059 N.pl3     1 <0>        -0.4713
      6 C4         -1.2373    0.3268   -0.0276 C.cat     1 <0>         0.3039
      7 C5         -1.1891   -2.1402   -2.6381 C.2       1 <0>        -0.1216
      8 C6         -2.3236   -2.2912   -3.3690 C.2       1 <0>        -0.0820
      9 C7         -2.3715   -3.2431   -4.4046 C.ar      1 <0>         0.1376
     10 C8         -1.1860   -3.9856   -4.5973 C.ar      1 <0>        -0.1935
     11 S1         -0.0844   -3.3374   -3.3668 S.3       1 <0>         0.1700
     12 C9         -1.0838   -4.9558   -5.5767 C.ar      1 <0>         0.2099
     13 C10        -2.1963   -5.1888   -6.3838 C.ar      1 <0>        -0.2122
     14 C11        -3.3390   -4.4394   -6.1621 C.ar      1 <0>         0.1674
     15 N3         -3.4080   -3.5259   -5.2268 N.ar      1 <0>        -0.4688
     16 O1          0.0645   -5.6595   -5.7476 O.3       1 <0>        -0.2327
     17 C12         0.0666   -6.6658   -6.6624 C.ar      1 <0>         0.0088
     18 C13        -0.1679   -7.9714   -6.2575 C.ar      1 <0>        -0.0617
     19 C14        -0.1661   -8.9940   -7.1857 C.ar      1 <0>        -0.1405
     20 C15         0.0710   -8.7159   -8.5255 C.ar      1 <0>         0.2024
     21 C16         0.3059   -7.4093   -8.9321 C.ar      1 <0>        -0.1480
     22 C17         0.2978   -6.3851   -8.0033 C.ar      1 <0>         0.1249
     23 F1          0.5208   -5.1126   -8.3986 F         1 <0>        -0.1207
     24 N4          0.0737   -9.7533   -9.4662 N.am      1 <0>        -0.6663
     25 C18        -0.3719   -9.5288  -10.7181 C.2       1 <0>         0.5919
     26 O2         -0.8612   -8.4532  -11.0057 O.2       1 <0>        -0.4970
     27 C19        -0.2664  -10.5871  -11.7389 C.2       1 <0>        -0.2410
     28 C20         0.2693  -11.8813  -11.5530 C.2       1 <0>         0.0850
     29 N5          0.1854  -12.5196  -12.6876 N.2       1 <0>        -0.2507
     30 N6         -0.3993  -11.6770  -13.6396 N.pl3     1 <0>        -0.3179
     31 C21        -0.6778  -10.5013  -13.0539 C.2       1 <0>         0.0580
     32 C22        -1.3187   -9.3066  -13.7119 C.3       1 <0>         0.5357
     33 F2         -2.1783   -9.7389  -14.7275 F         1 <0>        -0.1723
     34 F3         -2.0471   -8.5849  -12.7602 F         1 <0>        -0.1303
     35 F4         -0.3257   -8.4869  -14.2589 F         1 <0>        -0.1612
     36 C23        -0.6672  -12.0214  -15.0381 C.3       1 <0>         0.0791
     37 H1          0.9308   -0.2496    2.0080 H         1 <0>         0.1143
     38 H2          2.0191    0.2444    0.6889 H         1 <0>         0.1202
     39 H3          0.8223    1.3938    1.3329 H         1 <0>         0.1191
     40 H4          1.1370   -1.6644   -0.9801 H         1 <0>         0.2278
     41 H5         -1.7022    1.0969    0.5701 H         1 <0>         0.2688
     42 H6         -3.1889   -1.6812   -3.1555 H         1 <0>         0.1496
     43 H7         -2.1673   -5.9357   -7.1633 H         1 <0>         0.1576
     44 H8         -4.2048   -4.6144   -6.7835 H         1 <0>         0.1766
     45 H9         -0.3517   -8.1885   -5.2156 H         1 <0>         0.1506
     46 H10        -0.3487  -10.0104   -6.8694 H         1 <0>         0.1497
     47 H11         0.4906   -7.1925   -9.9738 H         1 <0>         0.1609
     48 H12         0.3963  -10.6334   -9.2167 H         1 <0>         0.4189
     49 H13         0.6772  -12.2732  -10.6330 H         1 <0>         0.2060
     50 H14        -1.6643  -12.4538  -15.1212 H         1 <0>         0.0985
     51 H15        -0.6090  -11.1221  -15.6513 H         1 <0>         0.0995
     52 H16         0.0723  -12.7444  -15.3823 H         1 <0>         0.1106
     53 H17        -2.7163   -0.1848   -1.3140 H         1 <0>         0.4660
@<TRIPOS>BOND
     1    1    2 1
     2    1   37 1
     3    1   38 1
     4    1   39 1
     5    2    6 1
     6    2    3 1
     7    3    4 2
     8    3   40 1
     9    4    5 1
    10    4    7 1
    11    5    6 2
    12    5   53 1
    13    6   41 1
    14    7   11 1
    15    7    8 2
    16    8    9 1
    17    8   42 1
    18    9   15 ar
    19    9   10 ar
    20   10   11 1
    21   10   12 ar
    22   12   13 ar
    23   12   16 1
    24   13   14 ar
    25   13   43 1
    26   14   15 ar
    27   14   44 1
    28   16   17 1
    29   17   22 ar
    30   17   18 ar
    31   18   19 ar
    32   18   45 1
    33   19   20 ar
    34   19   46 1
    35   20   21 ar
    36   20   24 1
    37   21   22 ar
    38   21   47 1
    39   22   23 1
    40   24   25 am
    41   24   48 1
    42   25   26 2
    43   25   27 1
    44   27   31 2
    45   27   28 1
    46   28   29 2
    47   28   49 1
    48   29   30 1
    49   30   31 1
    50   30   36 1
    51   31   32 1
    52   32   33 1
    53   32   34 1
    54   32   35 1
    55   36   50 1
    56   36   51 1
    57   36   52 1
@<TRIPOS>MOLECULE
CHEMBL1171941
   52    56     0     0     0
SMALL
USER_CHARGES

@<TRIPOS>ATOM
      1 C1         -0.6957    2.6018    0.5696 C.3       1 <0>        -0.1763
      2 C2         -0.4303    1.1209    0.4834 C.2       1 <0>         0.5150
      3 O1          0.7099    0.7076    0.4941 O.2       1 <0>        -0.5409
      4 N1         -1.4599    0.2558    0.3945 N.am      1 <0>        -0.6203
      5 C3         -2.8463    0.7417    0.3742 C.3       1 <0>         0.1108
      6 C4         -3.6365    0.0237    1.4728 C.3       1 <0>        -0.1471
      7 C5         -3.4980   -1.4894    1.2892 C.3       1 <0>         0.1637
      8 C6         -2.0257   -1.8875    1.4145 C.3       1 <0>        -0.1452
      9 C7         -1.2170   -1.1908    0.3097 C.3       1 <0>         0.1154
     10 N2         -4.2795   -2.1794    2.3185 N.pl3     1 <0>        -0.3623
     11 C8         -3.8635   -2.4637    3.5698 C.2       1 <0>         0.0687
     12 C9         -4.8829   -3.1079    4.2072 C.2       1 <0>        -0.1848
     13 C10        -5.9534   -3.2130    3.2985 C.2       1 <0>         0.0626
     14 N3         -5.5896   -2.6524    2.1753 N.2       1 <0>        -0.2882
     15 C11        -4.8665   -3.6080    5.6057 C.ar      1 <0>        -0.1046
     16 C12        -5.9814   -4.2585    6.1353 C.ar      1 <0>         0.0228
     17 C13        -5.9181   -4.7113    7.4549 C.ar      1 <0>        -0.1463
     18 C14        -4.7412   -4.4949    8.1916 C.ar      1 <0>         0.4366
     19 N4         -3.7091   -3.8721    7.6457 N.ar      1 <0>        -0.5324
     20 C15        -3.7360   -3.4381    6.4012 C.ar      1 <0>         0.1788
     21 N5         -4.6609   -4.9375    9.5024 N.pl3     1 <0>        -0.8381
     22 C16        -7.0685   -5.4053    8.0657 C.2       1 <0>         0.3028
     23 N6         -8.3119   -4.9983    8.0012 N.2       1 <0>        -0.4612
     24 C17        -9.0953   -5.8809    8.6731 C.ar      1 <0>         0.0232
     25 C18       -10.4670   -5.9529    8.9282 C.ar      1 <0>        -0.0603
     26 C19       -10.9707   -7.0030    9.6625 C.ar      1 <0>        -0.1173
     27 C20       -10.1250   -7.9884   10.1502 C.ar      1 <0>        -0.0910
     28 C21        -8.7683   -7.9305    9.9062 C.ar      1 <0>        -0.0925
     29 C22        -8.2431   -6.8811    9.1684 C.ar      1 <0>         0.0065
     30 O2         -6.9948   -6.5530    8.7664 O.3       1 <0>        -0.2113
     31 H1          0.2513    3.1375    0.6348 H         1 <0>         0.0942
     32 H2         -1.2363    2.9264   -0.3195 H         1 <0>         0.0899
     33 H3         -1.2942    2.8127    1.4559 H         1 <0>         0.0893
     34 H4         -2.8596    1.8161    0.5574 H         1 <0>         0.0976
     35 H5         -3.2940    0.5288   -0.5965 H         1 <0>         0.0783
     36 H6         -3.2443    0.3091    2.4488 H         1 <0>         0.0772
     37 H7         -4.6879    0.3034    1.4066 H         1 <0>         0.0895
     38 H8         -3.8677   -1.7709    0.3032 H         1 <0>         0.1078
     39 H9         -1.6486   -1.5840    2.3912 H         1 <0>         0.0796
     40 H10        -1.9305   -2.9680    1.3070 H         1 <0>         0.0896
     41 H11        -1.5345   -1.5581   -0.6662 H         1 <0>         0.0752
     42 H12        -0.1549   -1.3918    0.4503 H         1 <0>         0.1039
     43 H13        -2.8979   -2.2249    3.9906 H         1 <0>         0.1746
     44 H14        -6.9104   -3.6728    3.4967 H         1 <0>         0.1848
     45 H15        -6.8704   -4.4076    5.5404 H         1 <0>         0.1443
     46 H16        -2.8694   -2.9388    5.9936 H         1 <0>         0.1613
     47 H17        -5.4434   -5.3112    9.9369 H         1 <0>         0.4085
     48 H18        -3.8221   -4.8736    9.9853 H         1 <0>         0.4107
     49 H19       -11.1295   -5.1878    8.5513 H         1 <0>         0.1380
     50 H20       -12.0309   -7.0596    9.8604 H         1 <0>         0.1397
     51 H21       -10.5316   -8.8070   10.7256 H         1 <0>         0.1425
     52 H22        -8.1164   -8.7014   10.2896 H         1 <0>         0.1367
@<TRIPOS>BOND
     1    1    2 1
     2    1   31 1
     3    1   32 1
     4    1   33 1
     5    2    3 2
     6    2    4 am
     7    4    9 1
     8    4    5 1
     9    5    6 1
    10    5   34 1
    11    5   35 1
    12    6    7 1
    13    6   36 1
    14    6   37 1
    15    7    8 1
    16    7   10 1
    17    7   38 1
    18    8    9 1
    19    8   39 1
    20    8   40 1
    21    9   41 1
    22    9   42 1
    23   10   14 1
    24   10   11 1
    25   11   12 2
    26   11   43 1
    27   12   13 1
    28   12   15 1
    29   13   14 2
    30   13   44 1
    31   15   20 ar
    32   15   16 ar
    33   16   17 ar
    34   16   45 1
    35   17   18 ar
    36   17   22 1
    37   18   19 ar
    38   18   21 1
    39   19   20 ar
    40   20   46 1
    41   21   47 1
    42   21   48 1
    43   22   30 1
    44   22   23 2
    45   23   24 1
    46   24   29 ar
    47   24   25 ar
    48   25   26 ar
    49   25   49 1
    50   26   27 ar
    51   26   50 1
    52   27   28 ar
    53   27   51 1
    54   28   29 ar
    55   28   52 1
    56   29   30 1
@<TRIPOS>MOLECULE
CHEMBL1171941__1
   53    57     0     0     0
SMALL
USER_CHARGES

@<TRIPOS>ATOM
      1 C1         -0.6977    2.6024    0.5689 C.3       1 <0>        -0.1773
      2 C2         -0.4320    1.1215    0.4827 C.2       1 <0>         0.5157
      3 O1          0.7082    0.7084    0.4932 O.2       1 <0>        -0.5365
      4 N1         -1.4615    0.2562    0.3939 N.am      1 <0>        -0.6231
      5 C3         -2.8480    0.7418    0.3738 C.3       1 <0>         0.1095
      6 C4         -3.6379    0.0237    1.4725 C.3       1 <0>        -0.1455
      7 C5         -3.4992   -1.4893    1.2890 C.3       1 <0>         0.1545
      8 C6         -2.0267   -1.8872    1.4141 C.3       1 <0>        -0.1438
      9 C7         -1.2183   -1.1904    0.3092 C.3       1 <0>         0.1140
     10 N2         -4.2805   -2.1795    2.3183 N.pl3     1 <0>        -0.3450
     11 C8         -3.8642   -2.4637    3.5696 C.2       1 <0>         0.0985
     12 C9         -4.8834   -3.1080    4.2072 C.2       1 <0>        -0.2303
     13 C10        -5.9540   -3.2133    3.2986 C.2       1 <0>         0.0789
     14 N3         -5.5904   -2.6527    2.1754 N.2       1 <0>        -0.2697
     15 C11        -4.8668   -3.6081    5.6057 C.ar      1 <0>        -0.0101
     16 C12        -5.9815   -4.2587    6.1354 C.ar      1 <0>         0.0763
     17 C13        -5.9179   -4.7115    7.4550 C.ar      1 <0>        -0.0700
     18 C14        -4.7410   -4.4948    8.1916 C.ar      1 <0>         0.4634
     19 N4         -3.7091   -3.8719    7.6456 N.ar      1 <0>        -0.4845
     20 C15        -3.7361   -3.4379    6.4010 C.ar      1 <0>         0.1356
     21 N5         -4.6604   -4.9374    9.5024 N.pl3     1 <0>        -0.8098
     22 C16        -7.0681   -5.4056    8.0661 C.2       1 <0>         0.2439
     23 N6         -8.3116   -4.9989    8.0017 N.2       1 <0>        -0.4174
     24 C17        -9.0947   -5.8816    8.6737 C.ar      1 <0>         0.0116
     25 C18       -10.4664   -5.9538    8.9290 C.ar      1 <0>        -0.0466
     26 C19       -10.9698   -7.0040    9.6634 C.ar      1 <0>        -0.1119
     27 C20       -10.1239   -7.9893   10.1511 C.ar      1 <0>        -0.0673
     28 C21        -8.7672   -7.9311    9.9068 C.ar      1 <0>        -0.0986
     29 C22        -8.2423   -6.8816    9.1690 C.ar      1 <0>         0.0263
     30 O2         -6.9942   -6.5533    8.7667 O.3       1 <0>        -0.2104
     31 H1          0.2492    3.1382    0.6339 H         1 <0>         0.0965
     32 H2         -1.2385    2.9268   -0.3201 H         1 <0>         0.0920
     33 H3         -1.2961    2.8131    1.4552 H         1 <0>         0.0888
     34 H4         -2.8615    1.8163    0.5569 H         1 <0>         0.1014
     35 H5         -3.2958    0.5288   -0.5969 H         1 <0>         0.0812
     36 H6         -3.2456    0.3093    2.4485 H         1 <0>         0.0769
     37 H7         -4.6894    0.3033    1.4065 H         1 <0>         0.0922
     38 H8         -3.8689   -1.7709    0.3030 H         1 <0>         0.1170
     39 H9         -1.6496   -1.5836    2.3907 H         1 <0>         0.0778
     40 H10        -1.9314   -2.9677    1.3066 H         1 <0>         0.0907
     41 H11        -1.5359   -1.5577   -0.6667 H         1 <0>         0.0782
     42 H12        -0.1562   -1.3912    0.4496 H         1 <0>         0.1066
     43 H13        -2.8986   -2.2246    3.9903 H         1 <0>         0.1809
     44 H14        -6.9109   -3.6733    3.4969 H         1 <0>         0.1936
     45 H15        -6.8705   -4.4080    5.5407 H         1 <0>         0.1824
     46 H16        -2.8697   -2.9385    5.9933 H         1 <0>         0.2092
     47 H17        -5.4428   -5.3111    9.9371 H         1 <0>         0.4391
     48 H18        -3.8215   -4.8734    9.9851 H         1 <0>         0.4266
     49 H19       -11.1291   -5.1888    8.5521 H         1 <0>         0.1454
     50 H20       -12.0300   -7.0608    9.8614 H         1 <0>         0.1485
     51 H21       -10.5302   -8.8079   10.7265 H         1 <0>         0.1513
     52 H22        -8.1151   -8.7019   10.2902 H         1 <0>         0.1432
     53 H23        -2.9082   -3.7340    8.1751 H         1 <0>         0.4500
@<TRIPOS>BOND
     1    1    2 1
     2    1   31 1
     3    1   32 1
     4    1   33 1
     5    2    3 2
     6    2    4 am
     7    4    9 1
     8    4    5 1
     9    5    6 1
    10    5   34 1
    11    5   35 1
    12    6    7 1
    13    6   36 1
    14    6   37 1
    15    7    8 1
    16    7   10 1
    17    7   38 1
    18    8    9 1
    19    8   39 1
    20    8   40 1
    21    9   41 1
    22    9   42 1
    23   10   14 1
    24   10   11 1
    25   11   12 2
    26   11   43 1
    27   12   13 1
    28   12   15 1
    29   13   14 2
    30   13   44 1
    31   15   20 ar
    32   15   16 ar
    33   16   17 ar
    34   16   45 1
    35   17   18 ar
    36   17   22 1
    37   18   19 ar
    38   18   21 1
    39   19   20 ar
    40   19   53 1
    41   20   46 1
    42   21   47 1
    43   21   48 1
    44   22   30 1
    45   22   23 2
    46   23   24 1
    47   24   29 ar
    48   24   25 ar
    49   25   26 ar
    50   25   49 1
    51   26   27 ar
    52   26   50 1
    53   27   28 ar
    54   27   51 1
    55   28   29 ar
    56   28   52 1
    57   29   30 1
@<TRIPOS>MOLECULE
CHEMBL567475
   59    63     0     0     0
SMALL
USER_CHARGES

@<TRIPOS>ATOM
      1 C1         -2.2371    0.9374   -2.1223 C.3       1 <0>        -0.1721
      2 C2         -1.3951    1.0593   -0.8506 C.3       1 <0>         0.0979
      3 N1         -1.5716   -0.1422   -0.0311 N.pl3     1 <0>        -0.4545
      4 C3         -2.5208   -0.3303    0.9333 C.2       1 <0>        -0.0140
      5 C4         -2.3227   -1.5789    1.4377 C.2       1 <0>         0.0619
      6 N2         -1.2741   -2.1225    0.7841 N.2       1 <0>        -0.4698
      7 C5         -0.8289   -1.2694   -0.0947 C.2       1 <0>         0.1973
      8 C6         -3.1129   -2.2232    2.5084 C.2       1 <0>        -0.0115
      9 C7         -2.9553   -3.4583    3.0504 C.2       1 <0>        -0.1349
     10 C8         -3.8194   -3.8931    4.0728 C.ar      1 <0>         0.1650
     11 C9         -4.8129   -2.9667    4.4580 C.ar      1 <0>        -0.2094
     12 S1         -4.5042   -1.5667    3.4129 S.3       1 <0>         0.1018
     13 C10        -5.7326   -3.2531    5.4496 C.ar      1 <0>         0.2116
     14 C11        -5.6559   -4.4985    6.0713 C.ar      1 <0>        -0.2393
     15 C12        -4.6672   -5.3778    5.6643 C.ar      1 <0>         0.1591
     16 N3         -3.8087   -5.0802    4.7217 N.ar      1 <0>        -0.4779
     17 O1         -6.6807   -2.3496    5.8070 O.3       1 <0>        -0.2371
     18 C13        -7.6178   -2.7328    6.7150 C.ar      1 <0>         0.0187
     19 C14        -8.8122   -3.2914    6.2851 C.ar      1 <0>        -0.0650
     20 C15        -9.7644   -3.6809    7.2065 C.ar      1 <0>        -0.1473
     21 C16        -9.5270   -3.5131    8.5643 C.ar      1 <0>         0.1924
     22 C17        -8.3317   -2.9541    8.9960 C.ar      1 <0>        -0.1591
     23 C18        -7.3761   -2.5699    8.0735 C.ar      1 <0>         0.1268
     24 F1         -6.2103   -2.0309    8.4926 F         1 <0>        -0.1200
     25 N4        -10.4935   -3.9075    9.4985 N.am      1 <0>        -0.6718
     26 C19       -10.1226   -4.2513   10.7477 C.2       1 <0>         0.5116
     27 O2         -8.9458   -4.3254   11.0322 O.2       1 <0>        -0.4620
     28 C20       -11.1699   -4.5436   11.7912 C.3       1 <0>        -0.1628
     29 C21       -10.4973   -4.9005   13.0917 C.2       1 <0>         0.5111
     30 O3         -9.2867   -4.9159   13.1642 O.2       1 <0>        -0.4694
     31 N5        -11.2411   -5.2025   14.1743 N.am      1 <0>        -0.6751
     32 C22       -10.6212   -5.4223   15.4105 C.ar      1 <0>         0.1358
     33 C23       -11.1356   -6.3676   16.2879 C.ar      1 <0>        -0.1149
     34 C24       -10.5228   -6.5829   17.5067 C.ar      1 <0>        -0.1338
     35 C25        -9.3962   -5.8565   17.8542 C.ar      1 <0>         0.0857
     36 C26        -8.8816   -4.9133   16.9806 C.ar      1 <0>        -0.1324
     37 C27        -9.4879   -4.6993   15.7583 C.ar      1 <0>        -0.0905
     38 F2         -8.7987   -6.0679   19.0472 F         1 <0>        -0.1382
     39 H1         -2.1058    1.8313   -2.7320 H         1 <0>         0.0803
     40 H2         -1.9172    0.0619   -2.6873 H         1 <0>         0.0658
     41 H3         -3.2882    0.8321   -1.8534 H         1 <0>         0.0645
     42 H4         -0.3441    1.1645   -1.1195 H         1 <0>         0.0998
     43 H5         -1.7150    1.9347   -0.2856 H         1 <0>         0.0959
     44 H6         -3.2805    0.3748    1.2367 H         1 <0>         0.1811
     45 H7          0.0019   -1.4356   -0.7645 H         1 <0>         0.2124
     46 H8         -2.1675   -4.1069    2.6967 H         1 <0>         0.1544
     47 H9         -6.3509   -4.7706    6.8520 H         1 <0>         0.1472
     48 H10        -4.6017   -6.3444    6.1415 H         1 <0>         0.1665
     49 H11        -8.9979   -3.4216    5.2292 H         1 <0>         0.1493
     50 H12       -10.6942   -4.1158    6.8708 H         1 <0>         0.1453
     51 H13        -8.1467   -2.8231   10.0519 H         1 <0>         0.1652
     52 H14       -11.4298   -3.9331    9.2462 H         1 <0>         0.4174
     53 H15       -11.7951   -3.6625   11.9352 H         1 <0>         0.1344
     54 H16       -11.7886   -5.3781   11.4611 H         1 <0>         0.1325
     55 H17       -12.2059   -5.2675   14.0972 H         1 <0>         0.4125
     56 H18       -12.0146   -6.9339   16.0175 H         1 <0>         0.1370
     57 H19       -10.9226   -7.3181   18.1894 H         1 <0>         0.1409
     58 H20        -8.0031   -4.3475   17.2537 H         1 <0>         0.1404
     59 H21        -9.0837   -3.9668   15.0754 H         1 <0>         0.1430
@<TRIPOS>BOND
     1    1    2 1
     2    1   39 1
     3    1   40 1
     4    1   41 1
     5    2    3 1
     6    2   42 1
     7    2   43 1
     8    3    7 1
     9    3    4 1
    10    4    5 2
    11    4   44 1
    12    5    6 1
    13    5    8 1
    14    6    7 2
    15    7   45 1
    16    8   12 1
    17    8    9 2
    18    9   10 1
    19    9   46 1
    20   10   16 ar
    21   10   11 ar
    22   11   12 1
    23   11   13 ar
    24   13   14 ar
    25   13   17 1
    26   14   15 ar
    27   14   47 1
    28   15   16 ar
    29   15   48 1
    30   17   18 1
    31   18   23 ar
    32   18   19 ar
    33   19   20 ar
    34   19   49 1
    35   20   21 ar
    36   20   50 1
    37   21   22 ar
    38   21   25 1
    39   22   23 ar
    40   22   51 1
    41   23   24 1
    42   25   26 am
    43   25   52 1
    44   26   27 2
    45   26   28 1
    46   28   29 1
    47   28   53 1
    48   28   54 1
    49   29   30 2
    50   29   31 am
    51   31   32 1
    52   31   55 1
    53   32   37 ar
    54   32   33 ar
    55   33   34 ar
    56   33   56 1
    57   34   35 ar
    58   34   57 1
    59   35   36 ar
    60   35   38 1
    61   36   37 ar
    62   36   58 1
    63   37   59 1
@<TRIPOS>MOLECULE
CHEMBL567475__1
   60    64     0     0     0
SMALL
USER_CHARGES

@<TRIPOS>ATOM
      1 C1         -0.7418    0.9295    3.0000 C.3       1 <0>        -0.1810
      2 C2         -0.0646    1.0636    1.6346 C.3       1 <0>         0.0872
      3 N1          0.7633   -0.1183    1.3819 N.pl3     1 <0>        -0.4024
      4 C3          2.0773   -0.2723    1.7225 C.2       1 <0>         0.0490
      5 C4          2.4464   -1.5135    1.3031 C.2       1 <0>         0.1239
      6 N2          1.3701   -2.0863    0.7236 N.pl3     1 <0>        -0.4724
      7 C5          0.3653   -1.2580    0.7744 C.cat     1 <0>         0.3042
      8 C6          3.7844   -2.1238    1.4544 C.2       1 <0>        -0.1204
      9 C7          4.2060   -3.3502    1.0513 C.2       1 <0>        -0.0826
     10 C8          5.5339   -3.7509    1.2899 C.ar      1 <0>         0.1380
     11 C9          6.3407   -2.8016    1.9546 C.ar      1 <0>        -0.1941
     12 S1          5.2464   -1.4278    2.2048 S.3       1 <0>         0.1699
     13 C10         7.6660   -3.0539    2.2563 C.ar      1 <0>         0.2099
     14 C11         8.1973   -4.2876    1.8834 C.ar      1 <0>        -0.2129
     15 C12         7.3728   -5.1901    1.2337 C.ar      1 <0>         0.1671
     16 N3          6.1202   -4.9249    0.9605 N.ar      1 <0>        -0.4689
     17 O1          8.4266   -2.1287    2.8956 O.3       1 <0>        -0.2326
     18 C13         9.6907   -2.4791    3.2545 C.ar      1 <0>         0.0040
     19 C14         9.9293   -3.0275    4.5058 C.ar      1 <0>        -0.0616
     20 C15        11.2127   -3.3835    4.8711 C.ar      1 <0>        -0.1475
     21 C16        12.2655   -3.1924    3.9861 C.ar      1 <0>         0.2027
     22 C17        12.0279   -2.6435    2.7331 C.ar      1 <0>        -0.1594
     23 C18        10.7420   -2.2928    2.3654 C.ar      1 <0>         0.1300
     24 F1         10.5088   -1.7638    1.1444 F         1 <0>        -0.1203
     25 N4         13.5672   -3.5529    4.3575 N.am      1 <0>        -0.6728
     26 C19        14.4721   -3.8774    3.4129 C.2       1 <0>         0.5137
     27 O2         14.1322   -3.9641    2.2518 O.2       1 <0>        -0.4611
     28 C20        15.9062   -4.1325    3.7993 C.3       1 <0>        -0.1636
     29 C21        16.7051   -4.4736    2.5679 C.2       1 <0>         0.5116
     30 O3         16.1633   -4.5065    1.4832 O.2       1 <0>        -0.4722
     31 N5         18.0217   -4.7423    2.6718 N.am      1 <0>        -0.6736
     32 C22        18.7878   -4.9470    1.5176 C.ar      1 <0>         0.1335
     33 C23        19.8282   -5.8665    1.5278 C.ar      1 <0>        -0.1135
     34 C24        20.5826   -6.0669    0.3884 C.ar      1 <0>        -0.1333
     35 C25        20.3023   -5.3513   -0.7634 C.ar      1 <0>         0.0877
     36 C26        19.2651   -4.4339   -0.7757 C.ar      1 <0>        -0.1331
     37 C27        18.5044   -4.2350    0.3598 C.ar      1 <0>        -0.0905
     38 F2         21.0420   -5.5481   -1.8767 F         1 <0>        -0.1371
     39 H1          0.0189    0.8460    3.7762 H         1 <0>         0.0747
     40 H2         -1.3578    1.8089    3.1881 H         1 <0>         0.1022
     41 H3         -1.3689    0.0380    3.0085 H         1 <0>         0.0731
     42 H4         -0.8253    1.1471    0.8584 H         1 <0>         0.1254
     43 H5          0.5625    1.9551    1.6261 H         1 <0>         0.1266
     44 H6          2.7020    0.4505    2.2263 H         1 <0>         0.2268
     45 H7         -0.6256   -1.4505    0.3904 H         1 <0>         0.2670
     46 H8          3.5224   -4.0179    0.5481 H         1 <0>         0.1496
     47 H9          9.2273   -4.5332    2.0960 H         1 <0>         0.1571
     48 H10         7.7775   -6.1479    0.9418 H         1 <0>         0.1763
     49 H11         9.1111   -3.1758    5.1950 H         1 <0>         0.1496
     50 H12        11.3976   -3.8105    5.8458 H         1 <0>         0.1483
     51 H13        12.8464   -2.4943    2.0446 H         1 <0>         0.1681
     52 H14        13.8173   -3.5690    5.2946 H         1 <0>         0.4195
     53 H15        16.3213   -3.2390    4.2656 H         1 <0>         0.1357
     54 H16        15.9506   -4.9637    4.5030 H         1 <0>         0.1338
     55 H17        18.4387   -4.7939    3.5461 H         1 <0>         0.4131
     56 H18        20.0476   -6.4243    2.4262 H         1 <0>         0.1375
     57 H19        21.3920   -6.7820    0.3960 H         1 <0>         0.1420
     58 H20        19.0483   -3.8765   -1.6750 H         1 <0>         0.1405
     59 H21        17.6927   -3.5226    0.3485 H         1 <0>         0.1422
     60 H22         1.3474   -2.9744    0.3342 H         1 <0>         0.4655
@<TRIPOS>BOND
     1    1    2 1
     2    1   39 1
     3    1   40 1
     4    1   41 1
     5    2    3 1
     6    2   42 1
     7    2   43 1
     8    3    7 1
     9    3    4 1
    10    4    5 2
    11    4   44 1
    12    5    6 1
    13    5    8 1
    14    6    7 2
    15    6   60 1
    16    7   45 1
    17    8   12 1
    18    8    9 2
    19    9   10 1
    20    9   46 1
    21   10   16 ar
    22   10   11 ar
    23   11   12 1
    24   11   13 ar
    25   13   14 ar
    26   13   17 1
    27   14   15 ar
    28   14   47 1
    29   15   16 ar
    30   15   48 1
    31   17   18 1
    32   18   23 ar
    33   18   19 ar
    34   19   20 ar
    35   19   49 1
    36   20   21 ar
    37   20   50 1
    38   21   22 ar
    39   21   25 1
    40   22   23 ar
    41   22   51 1
    42   23   24 1
    43   25   26 am
    44   25   52 1
    45   26   27 2
    46   26   28 1
    47   28   29 1
    48   28   53 1
    49   28   54 1
    50   29   30 2
    51   29   31 am
    52   31   32 1
    53   31   55 1
    54   32   37 ar
    55   32   33 ar
    56   33   34 ar
    57   33   56 1
    58   34   35 ar
    59   34   57 1
    60   35   36 ar
    61   35   38 1
    62   36   37 ar
    63   36   58 1
    64   37   59 1
@<TRIPOS>MOLECULE
CHEMBL493313
   34    37     0     0     0
SMALL
USER_CHARGES

@<TRIPOS>ATOM
      1 C1         -0.0168    1.3910    0.0097 C.ar      1 <0>        -0.0653
      2 C2          1.1697    2.0946    0.0021 C.ar      1 <0>        -0.1501
      3 C3          2.3789    1.4181   -0.0135 C.ar      1 <0>         0.1057
      4 C4          2.4032    0.0327   -0.0216 C.ar      1 <0>        -0.1517
      5 C5          1.2224   -0.6803   -0.0137 C.ar      1 <0>        -0.0732
      6 C6          0.0021   -0.0041    0.0020 C.ar      1 <0>        -0.0292
      7 C7         -1.2681   -0.7641    0.0106 C.2       1 <0>        -0.0852
      8 C8         -2.2709   -0.7889    1.0859 C.ar      1 <0>         0.1151
      9 C9         -3.2984   -1.6466    0.6416 C.ar      1 <0>         0.0814
     10 C10        -4.3999   -1.8661    1.4668 C.ar      1 <0>        -0.0761
     11 C11        -4.4407   -1.2313    2.6927 C.ar      1 <0>        -0.1021
     12 C12        -3.3871   -0.3932    3.0712 C.ar      1 <0>         0.1902
     13 N1         -2.3488   -0.1990    2.2706 N.ar      1 <0>        -0.4042
     14 C13        -3.4307    0.2648    4.3423 C.1       1 <0>         0.2665
     15 N2         -3.4653    0.7868    5.3507 N.1       1 <0>        -0.3847
     16 N3         -2.9540   -2.1111   -0.6065 N.pl3     1 <0>        -0.5712
     17 H1         -3.4891   -2.7196   -1.1398 H         1 <0>         0.4257
     18 C14        -1.7461   -1.5832   -0.9911 C.2       1 <0>         0.1593
     19 C15        -1.0646   -1.8529   -2.2727 C.ar      1 <0>        -0.1515
     20 C16        -0.4866   -0.8145   -3.0135 C.ar      1 <0>         0.1903
     21 N4          0.1138   -1.1016   -4.1551 N.ar      1 <0>        -0.5098
     22 C17         0.1727   -2.3423   -4.5977 C.ar      1 <0>         0.3079
     23 N5         -0.3577   -3.3499   -3.9327 N.ar      1 <0>        -0.5133
     24 C18        -0.9726   -3.1551   -2.7794 C.ar      1 <0>         0.1701
     25 F1          3.5382    2.1118   -0.0213 F         1 <0>        -0.1376
     26 H2         -0.9588    1.9192    0.0260 H         1 <0>         0.1352
     27 H3          1.1562    3.1744    0.0081 H         1 <0>         0.1394
     28 H4          3.3484   -0.4898   -0.0345 H         1 <0>         0.1372
     29 H5          1.2424   -1.7601   -0.0204 H         1 <0>         0.1296
     30 H6         -5.2031   -2.5171    1.1547 H         1 <0>         0.1499
     31 H7         -5.2810   -1.3809    3.3545 H         1 <0>         0.1547
     32 H8         -0.5310    0.2043   -2.6578 H         1 <0>         0.1735
     33 H9          0.6713   -2.5396   -5.5352 H         1 <0>         0.2034
     34 H10        -1.4006   -3.9861   -2.2384 H         1 <0>         0.1701
@<TRIPOS>BOND
     1    1    6 ar
     2    1    2 ar
     3    1   26 1
     4    2    3 ar
     5    2   27 1
     6    3    4 ar
     7    3   25 1
     8    4    5 ar
     9    4   28 1
    10    5    6 ar
    11    5   29 1
    12    6    7 1
    13    7   18 2
    14    7    8 1
    15    8   13 ar
    16    8    9 ar
    17    9   10 ar
    18    9   16 1
    19   10   11 ar
    20   10   30 1
    21   11   12 ar
    22   11   31 1
    23   12   13 ar
    24   12   14 1
    25   14   15 3
    26   16   17 1
    27   16   18 1
    28   18   19 1
    29   19   24 ar
    30   19   20 ar
    31   20   21 ar
    32   20   32 1
    33   21   22 ar
    34   22   23 ar
    35   22   33 1
    36   23   24 ar
    37   24   34 1
@<TRIPOS>MOLECULE
CHEMBL565807
   63    68     0     0     0
SMALL
USER_CHARGES

@<TRIPOS>ATOM
      1 C1         -1.8271    4.1863   -0.2384 C.3       1 <0>        -0.1721
      2 C2         -0.9646    3.0881    0.3869 C.3       1 <0>         0.0978
      3 N1         -1.7296    1.8400    0.4449 N.pl3     1 <0>        -0.4543
      4 C3         -2.5295    1.4295    1.4735 C.2       1 <0>        -0.0132
      5 C4         -3.0430    0.2222    1.1108 C.2       1 <0>         0.0608
      6 N2         -2.5564   -0.0786   -0.1119 N.2       1 <0>        -0.4696
      7 C5         -1.7777    0.8868   -0.5119 C.2       1 <0>         0.1977
      8 C6         -3.9665   -0.6096    1.9114 C.2       1 <0>        -0.0095
      9 C7         -4.5022   -1.8182    1.6011 C.2       1 <0>        -0.1362
     10 C8         -5.3696   -2.4566    2.5073 C.ar      1 <0>         0.1666
     11 C9         -5.6140   -1.7527    3.7067 C.ar      1 <0>        -0.2097
     12 S1         -4.6463   -0.2766    3.5276 S.3       1 <0>         0.1037
     13 C10        -6.4441   -2.2552    4.6914 C.ar      1 <0>         0.2125
     14 C11        -7.0448   -3.4935    4.4700 C.ar      1 <0>        -0.2415
     15 C12        -6.7790   -4.1510    3.2810 C.ar      1 <0>         0.1596
     16 N3         -5.9883   -3.6513    2.3649 N.ar      1 <0>        -0.4771
     17 O1         -6.6670   -1.5643    5.8385 O.3       1 <0>        -0.2368
     18 C13        -7.5496   -2.0820    6.7344 C.ar      1 <0>         0.0340
     19 C14        -8.8499   -1.6022    6.7831 C.ar      1 <0>        -0.0678
     20 C15        -9.7469   -2.1273    7.6925 C.ar      1 <0>        -0.1320
     21 C16        -9.3475   -3.1360    8.5593 C.ar      1 <0>         0.1767
     22 C17        -8.0460   -3.6171    8.5115 C.ar      1 <0>        -0.1390
     23 C18        -7.1501   -3.0954    7.5968 C.ar      1 <0>         0.1168
     24 F1         -5.8850   -3.5667    7.5456 F         1 <0>        -0.1185
     25 N4        -10.2575   -3.6676    9.4822 N.am      1 <0>        -0.6729
     26 C19        -9.8664   -3.9153   10.7480 C.2       1 <0>         0.5590
     27 O2         -8.7006   -3.7894   11.0582 O.2       1 <0>        -0.4880
     28 C20       -10.8777   -4.3486   11.7779 C.3       1 <0>        -0.2077
     29 C21       -11.6249   -3.2520   12.5393 C.3       1 <0>        -0.1307
     30 C22       -10.5495   -4.0782   13.2476 C.3       1 <0>        -0.1039
     31 C23       -11.6343   -5.6112   11.4547 C.2       1 <0>         0.5565
     32 O3        -11.6231   -6.5411   12.2334 O.2       1 <0>        -0.4909
     33 N5        -12.3234   -5.7072   10.3005 N.am      1 <0>        -0.6710
     34 C24       -13.1389   -6.8192   10.0628 C.ar      1 <0>         0.1382
     35 C25       -13.8649   -7.3846   11.1029 C.ar      1 <0>        -0.1156
     36 C26       -14.6688   -8.4822   10.8651 C.ar      1 <0>        -0.0994
     37 C27       -14.7512   -9.0181    9.5930 C.ar      1 <0>        -0.1280
     38 C28       -14.0293   -8.4576    8.5553 C.ar      1 <0>        -0.0994
     39 C29       -13.2283   -7.3562    8.7853 C.ar      1 <0>        -0.1406
     40 H1         -1.2580    5.1149   -0.2815 H         1 <0>         0.0805
     41 H2         -2.1170    3.8907   -1.2467 H         1 <0>         0.0659
     42 H3         -2.7208    4.3356    0.3675 H         1 <0>         0.0646
     43 H4         -0.0710    2.9387   -0.2190 H         1 <0>         0.1000
     44 H5         -0.6748    3.3837    1.3952 H         1 <0>         0.0960
     45 H6         -2.7175    1.9596    2.3954 H         1 <0>         0.1811
     46 H7         -1.2530    0.9187   -1.4554 H         1 <0>         0.2127
     47 H8         -4.2630   -2.2893    0.6592 H         1 <0>         0.1549
     48 H9         -7.7013   -3.9296    5.2083 H         1 <0>         0.1458
     49 H10        -7.2408   -5.1108    3.1025 H         1 <0>         0.1665
     50 H11        -9.1611   -0.8173    6.1098 H         1 <0>         0.1526
     51 H12       -10.7593   -1.7531    7.7297 H         1 <0>         0.1478
     52 H13        -7.7348   -4.4014    9.1857 H         1 <0>         0.1557
     53 H14       -11.1690   -3.8575    9.2102 H         1 <0>         0.4073
     54 H15       -11.3851   -2.2170   12.2954 H         1 <0>         0.1159
     55 H16       -12.6641   -3.4435   12.8066 H         1 <0>         0.1161
     56 H17       -10.8812   -4.8134   13.9808 H         1 <0>         0.1218
     57 H18        -9.6022   -3.5869   13.4696 H         1 <0>         0.1209
     58 H19       -12.2541   -5.0054    9.6344 H         1 <0>         0.4001
     59 H20       -13.8006   -6.9668   12.0967 H         1 <0>         0.1297
     60 H21       -15.2333   -8.9227   11.6736 H         1 <0>         0.1285
     61 H22       -15.3806   -9.8764    9.4096 H         1 <0>         0.1264
     62 H23       -14.0955   -8.8786    7.5630 H         1 <0>         0.1291
     63 H24       -12.6687   -6.9157    7.9733 H         1 <0>         0.1258
@<TRIPOS>BOND
     1    1    2 1
     2    1   40 1
     3    1   41 1
     4    1   42 1
     5    2    3 1
     6    2   43 1
     7    2   44 1
     8    3    7 1
     9    3    4 1
    10    4    5 2
    11    4   45 1
    12    5    6 1
    13    5    8 1
    14    6    7 2
    15    7   46 1
    16    8   12 1
    17    8    9 2
    18    9   10 1
    19    9   47 1
    20   10   16 ar
    21   10   11 ar
    22   11   12 1
    23   11   13 ar
    24   13   14 ar
    25   13   17 1
    26   14   15 ar
    27   14   48 1
    28   15   16 ar
    29   15   49 1
    30   17   18 1
    31   18   23 ar
    32   18   19 ar
    33   19   20 ar
    34   19   50 1
    35   20   21 ar
    36   20   51 1
    37   21   22 ar
    38   21   25 1
    39   22   23 ar
    40   22   52 1
    41   23   24 1
    42   25   26 am
    43   25   53 1
    44   26   27 2
    45   26   28 1
    46   28   30 1
    47   28   29 1
    48   28   31 1
    49   29   30 1
    50   29   54 1
    51   29   55 1
    52   30   56 1
    53   30   57 1
    54   31   32 2
    55   31   33 am
    56   33   34 1
    57   33   58 1
    58   34   39 ar
    59   34   35 ar
    60   35   36 ar
    61   35   59 1
    62   36   37 ar
    63   36   60 1
    64   37   38 ar
    65   37   61 1
    66   38   39 ar
    67   38   62 1
    68   39   63 1
@<TRIPOS>MOLECULE
CHEMBL565807__1
   64    69     0     0     0
SMALL
USER_CHARGES

@<TRIPOS>ATOM
      1 C1         -1.8271    4.1863   -0.2384 C.3       1 <0>        -0.1811
      2 C2         -0.9646    3.0881    0.3869 C.3       1 <0>         0.0871
      3 N1         -1.7296    1.8400    0.4449 N.pl3     1 <0>        -0.4024
      4 C3         -2.5295    1.4295    1.4735 C.2       1 <0>         0.0499
      5 C4         -3.0430    0.2222    1.1108 C.2       1 <0>         0.1226
      6 N2         -2.5564   -0.0786   -0.1119 N.pl3     1 <0>        -0.4723
      7 C5         -1.7777    0.8868   -0.5119 C.cat     1 <0>         0.3048
      8 C6         -3.9665   -0.6096    1.9114 C.2       1 <0>        -0.1184
      9 C7         -4.5022   -1.8182    1.6011 C.2       1 <0>        -0.0840
     10 C8         -5.3696   -2.4566    2.5073 C.ar      1 <0>         0.1399
     11 C9         -5.6140   -1.7527    3.7067 C.ar      1 <0>        -0.1944
     12 S1         -4.6463   -0.2766    3.5276 S.3       1 <0>         0.1719
     13 C10        -6.4441   -2.2552    4.6914 C.ar      1 <0>         0.2110
     14 C11        -7.0448   -3.4935    4.4700 C.ar      1 <0>        -0.2152
     15 C12        -6.7790   -4.1510    3.2810 C.ar      1 <0>         0.1677
     16 N3         -5.9883   -3.6513    2.3649 N.ar      1 <0>        -0.4682
     17 O1         -6.6670   -1.5643    5.8385 O.3       1 <0>        -0.2326
     18 C13        -7.5496   -2.0820    6.7344 C.ar      1 <0>         0.0198
     19 C14        -8.8499   -1.6022    6.7831 C.ar      1 <0>        -0.0640
     20 C15        -9.7469   -2.1273    7.6925 C.ar      1 <0>        -0.1318
     21 C16        -9.3475   -3.1360    8.5593 C.ar      1 <0>         0.1872
     22 C17        -8.0460   -3.6171    8.5115 C.ar      1 <0>        -0.1391
     23 C18        -7.1501   -3.0954    7.5968 C.ar      1 <0>         0.1191
     24 F1         -5.8850   -3.5667    7.5456 F         1 <0>        -0.1193
     25 N4        -10.2575   -3.6676    9.4822 N.am      1 <0>        -0.6749
     26 C19        -9.8664   -3.9153   10.7480 C.2       1 <0>         0.5611
     27 O2         -8.7006   -3.7894   11.0582 O.2       1 <0>        -0.4873
     28 C20       -10.8777   -4.3486   11.7779 C.3       1 <0>        -0.2091
     29 C21       -11.6249   -3.2520   12.5393 C.3       1 <0>        -0.1301
     30 C22       -10.5495   -4.0782   13.2476 C.3       1 <0>        -0.1031
     31 C23       -11.6343   -5.6112   11.4547 C.2       1 <0>         0.5552
     32 O3        -11.6231   -6.5411   12.2334 O.2       1 <0>        -0.4881
     33 N5        -12.3234   -5.7072   10.3005 N.am      1 <0>        -0.6709
     34 C24       -13.1389   -6.8192   10.0628 C.ar      1 <0>         0.1364
     35 C25       -13.8649   -7.3846   11.1029 C.ar      1 <0>        -0.1149
     36 C26       -14.6688   -8.4822   10.8651 C.ar      1 <0>        -0.0980
     37 C27       -14.7512   -9.0181    9.5930 C.ar      1 <0>        -0.1265
     38 C28       -14.0293   -8.4576    8.5553 C.ar      1 <0>        -0.0998
     39 C29       -13.2283   -7.3562    8.7853 C.ar      1 <0>        -0.1415
     40 H1         -1.2580    5.1149   -0.2815 H         1 <0>         0.1023
     41 H2         -2.1170    3.8907   -1.2467 H         1 <0>         0.0731
     42 H3         -2.7208    4.3356    0.3675 H         1 <0>         0.0747
     43 H4         -0.0710    2.9387   -0.2190 H         1 <0>         0.1256
     44 H5         -0.6748    3.3837    1.3952 H         1 <0>         0.1267
     45 H6         -2.7175    1.9596    2.3954 H         1 <0>         0.2268
     46 H7         -1.2530    0.9187   -1.4554 H         1 <0>         0.2672
     47 H8         -4.2630   -2.2893    0.6592 H         1 <0>         0.1501
     48 H9         -7.7013   -3.9296    5.2083 H         1 <0>         0.1558
     49 H10        -7.2408   -5.1108    3.1025 H         1 <0>         0.1764
     50 H11        -9.1611   -0.8173    6.1098 H         1 <0>         0.1530
     51 H12       -10.7593   -1.7531    7.7297 H         1 <0>         0.1510
     52 H13        -7.7348   -4.4014    9.1857 H         1 <0>         0.1587
     53 H14       -11.1690   -3.8575    9.2102 H         1 <0>         0.4094
     54 H15       -11.3851   -2.2170   12.2954 H         1 <0>         0.1158
     55 H16       -12.6641   -3.4435   12.8066 H         1 <0>         0.1174
     56 H17       -10.8812   -4.8134   13.9808 H         1 <0>         0.1232
     57 H18        -9.6022   -3.5869   13.4696 H         1 <0>         0.1211
     58 H19       -12.2541   -5.0054    9.6344 H         1 <0>         0.3986
     59 H20       -13.8006   -6.9668   12.0967 H         1 <0>         0.1301
     60 H21       -15.2333   -8.9227   11.6736 H         1 <0>         0.1297
     61 H22       -15.3806   -9.8764    9.4096 H         1 <0>         0.1274
     62 H23       -14.0955   -8.8786    7.5630 H         1 <0>         0.1290
     63 H24       -12.6687   -6.9157    7.9733 H         1 <0>         0.1243
     64 H25        -2.7569   -0.8838   -0.6143 H         1 <0>         0.4656
@<TRIPOS>BOND
     1    1    2 1
     2    1   40 1
     3    1   41 1
     4    1   42 1
     5    2    3 1
     6    2   43 1
     7    2   44 1
     8    3    7 1
     9    3    4 1
    10    4    5 2
    11    4   45 1
    12    5    6 1
    13    5    8 1
    14    6    7 2
    15    6   64 1
    16    7   46 1
    17    8   12 1
    18    8    9 2
    19    9   10 1
    20    9   47 1
    21   10   16 ar
    22   10   11 ar
    23   11   12 1
    24   11   13 ar
    25   13   14 ar
    26   13   17 1
    27   14   15 ar
    28   14   48 1
    29   15   16 ar
    30   15   49 1
    31   17   18 1
    32   18   23 ar
    33   18   19 ar
    34   19   20 ar
    35   19   50 1
    36   20   21 ar
    37   20   51 1
    38   21   22 ar
    39   21   25 1
    40   22   23 ar
    41   22   52 1
    42   23   24 1
    43   25   26 am
    44   25   53 1
    45   26   27 2
    46   26   28 1
    47   28   30 1
    48   28   29 1
    49   28   31 1
    50   29   30 1
    51   29   54 1
    52   29   55 1
    53   30   56 1
    54   30   57 1
    55   31   32 2
    56   31   33 am
    57   33   34 1
    58   33   58 1
    59   34   39 ar
    60   34   35 ar
    61   35   36 ar
    62   35   59 1
    63   36   37 ar
    64   36   60 1
    65   37   38 ar
    66   37   61 1
    67   38   39 ar
    68   38   62 1
    69   39   63 1
@<TRIPOS>MOLECULE
CHEMBL468787
   52    56     0     0     0
SMALL
USER_CHARGES

@<TRIPOS>ATOM
      1 C1          0.2958    1.4469    0.1625 C.3       1 <0>        -0.0472
      2 N1          0.1546   -0.0128    0.0761 N.4       1 <0>        -0.3854
      3 C2         -1.2594   -0.3761    0.2338 C.3       1 <0>        -0.0223
      4 C3         -1.4236   -1.8858    0.0299 C.3       1 <0>         0.0976
      5 N2         -0.5114   -2.5826    0.9500 N.pl3     1 <0>        -0.6142
      6 C4          0.8994   -2.1665    0.9747 C.3       1 <0>         0.0989
      7 C5          0.9540   -0.6435    1.1340 C.3       1 <0>        -0.0221
      8 C6         -0.9684   -3.6032    1.7705 C.ar      1 <0>         0.3763
      9 C7         -2.2563   -4.1319    1.5754 C.ar      1 <0>         0.0500
     10 N3         -2.7043   -5.0969    2.3417 N.ar      1 <0>        -0.3725
     11 C8         -1.9306   -5.5854    3.3202 C.ar      1 <0>         0.0349
     12 C9         -2.3896   -6.6199    4.1535 C.ar      1 <0>        -0.0040
     13 C10        -1.5908   -7.1059    5.1441 C.ar      1 <0>        -0.1683
     14 C11        -0.3145   -6.5960    5.3527 C.ar      1 <0>        -0.0355
     15 C12         0.1768   -5.5772    4.5552 C.ar      1 <0>        -0.0188
     16 C13        -0.6336   -5.0547    3.5187 C.ar      1 <0>         0.1660
     17 N4         -0.1891   -4.0750    2.7259 N.ar      1 <0>        -0.4853
     18 C14         1.5375   -5.0392    4.7836 C.ar      1 <0>        -0.0666
     19 C15         2.4288   -4.9074    3.7180 C.ar      1 <0>        -0.0432
     20 C16         3.6934   -4.4073    3.9301 C.ar      1 <0>        -0.1441
     21 C17         4.0950   -4.0280    5.2114 C.ar      1 <0>         0.1568
     22 C18         3.2016   -4.1616    6.2688 C.ar      1 <0>        -0.1402
     23 C19         1.9353   -4.6548    6.0657 C.ar      1 <0>        -0.0456
     24 C20         3.9265   -3.6723    7.5018 C.3       1 <0>        -0.1175
     25 C21         5.2920   -3.2672    6.9890 C.2       1 <0>         0.5274
     26 O1          6.2036   -2.8139    7.6483 O.2       1 <0>        -0.4913
     27 N5          5.3045   -3.5036    5.6666 N.am      1 <0>        -0.6623
     28 C22        -2.0994   -8.2147    6.0290 C.3       1 <0>         0.5102
     29 F1         -3.3963   -8.5652    5.6386 F         1 <0>        -0.1712
     30 F2         -1.2600   -9.3276    5.9111 F         1 <0>        -0.1689
     31 F3         -2.1140   -7.7804    7.3589 F         1 <0>        -0.1695
     32 H1          1.3440    1.7185    0.0376 H         1 <0>         0.1262
     33 H2         -0.2972    1.9164   -0.6223 H         1 <0>         0.1267
     34 H3         -0.0546    1.7888    1.1364 H         1 <0>         0.1221
     35 H4         -1.5945   -0.1060    1.2352 H         1 <0>         0.1343
     36 H5         -1.8564    0.1576   -0.5057 H         1 <0>         0.1475
     37 H6         -2.4522   -2.1748    0.2453 H         1 <0>         0.1304
     38 H7         -1.1748   -2.1456   -0.9991 H         1 <0>         0.1020
     39 H8          1.4066   -2.6410    1.8148 H         1 <0>         0.1408
     40 H9          1.3827   -2.4547    0.0412 H         1 <0>         0.0934
     41 H10         1.9879   -0.3069    1.0579 H         1 <0>         0.1438
     42 H11         0.5518   -0.3654    2.1082 H         1 <0>         0.1334
     43 H12        -2.8822   -3.7397    0.7876 H         1 <0>         0.1758
     44 H13        -3.3780   -7.0302    4.0084 H         1 <0>         0.1607
     45 H14         0.2994   -6.9984    6.1450 H         1 <0>         0.1526
     46 H15         2.1253   -5.1992    2.7234 H         1 <0>         0.1288
     47 H16         4.3783   -4.3083    3.1009 H         1 <0>         0.1292
     48 H17         1.2511   -4.7489    6.8960 H         1 <0>         0.1341
     49 H18         3.4104   -2.8145    7.9330 H         1 <0>         0.1262
     50 H19         4.0162   -4.4736    8.2353 H         1 <0>         0.1289
     51 H20         6.0677   -3.3298    5.0938 H         1 <0>         0.4151
     52 H21         0.4820   -0.3284   -0.8246 H         1 <0>         0.4259
@<TRIPOS>BOND
     1    1    2 1
     2    1   32 1
     3    1   33 1
     4    1   34 1
     5    2    7 1
     6    2    3 1
     7    2   52 1
     8    3    4 1
     9    3   35 1
    10    3   36 1
    11    4    5 1
    12    4   37 1
    13    4   38 1
    14    5    6 1
    15    5    8 1
    16    6    7 1
    17    6   39 1
    18    6   40 1
    19    7   41 1
    20    7   42 1
    21    8   17 ar
    22    8    9 ar
    23    9   10 ar
    24    9   43 1
    25   10   11 ar
    26   11   16 ar
    27   11   12 ar
    28   12   13 ar
    29   12   44 1
    30   13   14 ar
    31   13   28 1
    32   14   15 ar
    33   14   45 1
    34   15   16 ar
    35   15   18 1
    36   16   17 ar
    37   18   23 ar
    38   18   19 ar
    39   19   20 ar
    40   19   46 1
    41   20   21 ar
    42   20   47 1
    43   21   27 1
    44   21   22 ar
    45   22   23 ar
    46   22   24 1
    47   23   48 1
    48   24   25 1
    49   24   49 1
    50   24   50 1
    51   25   26 2
    52   25   27 am
    53   27   51 1
    54   28   29 1
    55   28   30 1
    56   28   31 1
@<TRIPOS>MOLECULE
CHEMBL468787__1
   51    55     0     0     0
SMALL
USER_CHARGES

@<TRIPOS>ATOM
      1 C1          0.2920    1.4475    0.1726 C.3       1 <0>         0.0241
      2 N1          0.1594   -0.0128    0.0845 N.3       1 <0>        -0.5428
      3 C2         -1.2507   -0.4185    0.1538 C.3       1 <0>         0.0383
      4 C3         -1.3605   -1.9219   -0.1221 C.3       1 <0>         0.1209
      5 N2         -0.4627   -2.6330    0.8007 N.pl3     1 <0>        -0.5882
      6 C4          0.9375   -2.1915    0.8878 C.3       1 <0>         0.1242
      7 C5          0.9568   -0.6775    1.1239 C.3       1 <0>         0.0395
      8 C6         -0.9242   -3.6921    1.5682 C.ar      1 <0>         0.3910
      9 C7         -2.1932   -4.2397    1.3110 C.ar      1 <0>         0.0495
     10 N3         -2.6451   -5.2410    2.0266 N.ar      1 <0>        -0.3815
     11 C8         -1.8936   -5.7492    3.0122 C.ar      1 <0>         0.0137
     12 C9         -2.3571   -6.8228    3.7919 C.ar      1 <0>         0.0032
     13 C10        -1.5809   -7.3284    4.7907 C.ar      1 <0>        -0.1878
     14 C11        -0.3235   -6.8004    5.0603 C.ar      1 <0>        -0.0399
     15 C12         0.1715   -5.7432    4.3169 C.ar      1 <0>        -0.0260
     16 C13        -0.6155   -5.1997    3.2733 C.ar      1 <0>         0.1774
     17 N4         -0.1666   -4.1827    2.5316 N.ar      1 <0>        -0.5045
     18 C14         1.5120   -5.1861    4.6101 C.ar      1 <0>        -0.0584
     19 C15         2.4347   -4.9971    3.5805 C.ar      1 <0>        -0.0391
     20 C16         3.6805   -4.4794    3.8528 C.ar      1 <0>        -0.1391
     21 C17         4.0315   -4.1392    5.1598 C.ar      1 <0>         0.1496
     22 C18         3.1070   -4.3298    6.1810 C.ar      1 <0>        -0.1436
     23 C19         1.8591   -4.8411    5.9178 C.ar      1 <0>        -0.0492
     24 C20         3.7802   -3.8714    7.4545 C.3       1 <0>        -0.1150
     25 C21         5.1527   -3.4198    7.0028 C.2       1 <0>         0.5283
     26 O1          6.0321   -2.9725    7.7082 O.2       1 <0>        -0.5007
     27 N5          5.2137   -3.6072    5.6739 N.am      1 <0>        -0.6602
     28 C22        -2.0941   -8.4790    5.6175 C.3       1 <0>         0.5123
     29 F1         -3.3696   -8.8415    5.1713 F         1 <0>        -0.1745
     30 F2         -1.2274   -9.5695    5.4878 F         1 <0>        -0.1728
     31 F3         -2.1618   -8.0943    6.9608 F         1 <0>        -0.1732
     32 H1          1.3378    1.7259    0.0423 H         1 <0>         0.0722
     33 H2         -0.3083    1.9146   -0.6081 H         1 <0>         0.0721
     34 H3         -0.0550    1.7856    1.1490 H         1 <0>         0.0270
     35 H4         -1.6433   -0.2014    1.1473 H         1 <0>         0.0407
     36 H5         -1.8244    0.1311   -0.5925 H         1 <0>         0.0935
     37 H6         -2.3872   -2.2499    0.0403 H         1 <0>         0.0911
     38 H7         -1.0657   -2.1278   -1.1511 H         1 <0>         0.0864
     39 H8          1.4302   -2.6978    1.7179 H         1 <0>         0.1036
     40 H9          1.4532   -2.4233   -0.0441 H         1 <0>         0.0765
     41 H10         1.9841   -0.3157    1.0812 H         1 <0>         0.0892
     42 H11         0.5335   -0.4568    2.1038 H         1 <0>         0.0398
     43 H12        -2.8013   -3.8316    0.5172 H         1 <0>         0.1761
     44 H13        -3.3310   -7.2476    3.5990 H         1 <0>         0.1540
     45 H14         0.2726   -7.2190    5.8577 H         1 <0>         0.1462
     46 H15         2.1705   -5.2583    2.5664 H         1 <0>         0.1310
     47 H16         4.3899   -4.3360    3.0512 H         1 <0>         0.1293
     48 H17         1.1502   -4.9795    6.7208 H         1 <0>         0.1319
     49 H18         3.2318   -3.0407    7.8987 H         1 <0>         0.1243
     50 H19         3.8631   -4.6970    8.1612 H         1 <0>         0.1256
     51 H20         5.9915   -3.3969    5.1337 H         1 <0>         0.4142
@<TRIPOS>BOND
     1    1    2 1
     2    1   32 1
     3    1   33 1
     4    1   34 1
     5    2    7 1
     6    2    3 1
     7    3    4 1
     8    3   35 1
     9    3   36 1
    10    4    5 1
    11    4   37 1
    12    4   38 1
    13    5    6 1
    14    5    8 1
    15    6    7 1
    16    6   39 1
    17    6   40 1
    18    7   41 1
    19    7   42 1
    20    8   17 ar
    21    8    9 ar
    22    9   10 ar
    23    9   43 1
    24   10   11 ar
    25   11   16 ar
    26   11   12 ar
    27   12   13 ar
    28   12   44 1
    29   13   14 ar
    30   13   28 1
    31   14   15 ar
    32   14   45 1
    33   15   16 ar
    34   15   18 1
    35   16   17 ar
    36   18   23 ar
    37   18   19 ar
    38   19   20 ar
    39   19   46 1
    40   20   21 ar
    41   20   47 1
    42   21   27 1
    43   21   22 ar
    44   22   23 ar
    45   22   24 1
    46   23   48 1
    47   24   25 1
    48   24   49 1
    49   24   50 1
    50   25   26 2
    51   25   27 am
    52   27   51 1
    53   28   29 1
    54   28   30 1
    55   28   31 1
@<TRIPOS>MOLECULE
CHEMBL404881
   57    60     0     0     0
SMALL
USER_CHARGES

@<TRIPOS>ATOM
      1 C1          2.2014   -1.5734   -0.5830 C.3       1 <0>         0.0228
      2 O1          0.8342   -1.2642   -0.3049 O.3       1 <0>        -0.3016
      3 C2          0.2471   -0.3120   -1.0779 C.ar      1 <0>         0.1137
      4 C3          0.9662    0.2923   -2.0683 C.ar      1 <0>        -0.1540
      5 C4          0.3602    1.2746   -2.8658 C.ar      1 <0>        -0.1042
      6 C5          1.0730    1.9213   -3.9005 C.ar      1 <0>         0.1803
      7 C6          0.4084    2.8796   -4.6454 C.ar      1 <0>        -0.2610
      8 C7         -0.9187    3.1751   -4.3608 C.ar      1 <0>         0.1665
      9 N1         -1.5714    2.5687   -3.3971 N.ar      1 <0>        -0.4918
     10 C8         -0.9911    1.6317   -2.6378 C.ar      1 <0>         0.1711
     11 C9         -1.7047    0.9922   -1.6107 C.ar      1 <0>        -0.1787
     12 C10        -1.0927    0.0352   -0.8535 C.ar      1 <0>         0.1508
     13 O2         -1.7894   -0.5845    0.1350 O.3       1 <0>        -0.2999
     14 C11        -3.1505   -0.1885    0.3159 C.3       1 <0>         0.0209
     15 O3          2.3684    1.6125   -4.1553 O.3       1 <0>        -0.2383
     16 C12         2.9639    2.1947   -5.2305 C.ar      1 <0>         0.0541
     17 C13         3.1225    1.4785   -6.4075 C.ar      1 <0>        -0.0817
     18 C14         3.7267    2.0690   -7.5000 C.ar      1 <0>        -0.0634
     19 C15         4.1764    3.3805   -7.4209 C.ar      1 <0>         0.1556
     20 C16         4.0182    4.0986   -6.2431 C.ar      1 <0>        -0.1434
     21 C17         3.4080    3.5088   -5.1515 C.ar      1 <0>         0.0970
     22 F1          3.2489    4.2082   -4.0066 F         1 <0>        -0.1216
     23 N2          4.7899    3.9785   -8.5287 N.pl3     1 <0>        -0.6252
     24 C18         4.2380    3.8563   -9.7522 C.2       1 <0>         0.5082
     25 S1          2.8526    2.8749   -9.9721 S.2       1 <0>        -0.4741
     26 N3          4.7767    4.5067  -10.8025 N.am      1 <0>        -0.6415
     27 C19         4.2248    4.3845  -12.0260 C.2       1 <0>         0.4828
     28 O4          3.2436    3.6894  -12.1817 O.2       1 <0>        -0.3889
     29 C20         4.8271    5.1118  -13.2004 C.3       1 <0>        -0.0932
     30 C21         4.0282    4.8095  -14.4419 C.ar      1 <0>        -0.0802
     31 C22         4.3616    3.7249  -15.2314 C.ar      1 <0>        -0.1013
     32 C23         3.6287    3.4476  -16.3702 C.ar      1 <0>        -0.1182
     33 C24         2.5622    4.2548  -16.7194 C.ar      1 <0>        -0.1129
     34 C25         2.2283    5.3390  -15.9294 C.ar      1 <0>        -0.1181
     35 C26         2.9585    5.6137  -14.7883 C.ar      1 <0>        -0.1013
     36 H1          2.2914   -1.9321   -1.6084 H         1 <0>         0.0582
     37 H2          2.8095   -0.6777   -0.4567 H         1 <0>         0.0580
     38 H3          2.5461   -2.3464    0.1039 H         1 <0>         0.1046
     39 H4          1.9965    0.0158   -2.2369 H         1 <0>         0.1489
     40 H5          0.9196    3.3960   -5.4445 H         1 <0>         0.1385
     41 H6         -1.4275    3.9248   -4.9486 H         1 <0>         0.1636
     42 H7         -2.7359    1.2531   -1.4240 H         1 <0>         0.1543
     43 H8         -3.1912    0.8750    0.5514 H         1 <0>         0.0606
     44 H9         -3.7093   -0.3794   -0.6003 H         1 <0>         0.0608
     45 H10        -3.5891   -0.7590    1.1346 H         1 <0>         0.1056
     46 H11         2.7737    0.4583   -6.4696 H         1 <0>         0.1522
     47 H12         3.8498    1.5105   -8.4161 H         1 <0>         0.1625
     48 H13         4.3680    5.1184   -6.1809 H         1 <0>         0.1485
     49 H14         5.6120    4.4807   -8.4154 H         1 <0>         0.4120
     50 H15         5.5616    5.0628  -10.6779 H         1 <0>         0.4125
     51 H16         4.8111    6.1849  -13.0103 H         1 <0>         0.1092
     52 H17         5.8568    4.7832  -13.3420 H         1 <0>         0.1093
     53 H18         5.1948    3.0942  -14.9586 H         1 <0>         0.1202
     54 H19         3.8896    2.6006  -16.9874 H         1 <0>         0.1238
     55 H20         1.9901    4.0386  -17.6095 H         1 <0>         0.1233
     56 H21         1.3953    5.9698  -16.2024 H         1 <0>         0.1239
     57 H22         2.6953    6.4585  -14.1691 H         1 <0>         0.1202
@<TRIPOS>BOND
     1    1    2 1
     2    1   36 1
     3    1   37 1
     4    1   38 1
     5    2    3 1
     6    3   12 ar
     7    3    4 ar
     8    4    5 ar
     9    4   39 1
    10    5   10 ar
    11    5    6 ar
    12    6    7 ar
    13    6   15 1
    14    7    8 ar
    15    7   40 1
    16    8    9 ar
    17    8   41 1
    18    9   10 ar
    19   10   11 ar
    20   11   12 ar
    21   11   42 1
    22   12   13 1
    23   13   14 1
    24   14   43 1
    25   14   44 1
    26   14   45 1
    27   15   16 1
    28   16   21 ar
    29   16   17 ar
    30   17   18 ar
    31   17   46 1
    32   18   19 ar
    33   18   47 1
    34   19   20 ar
    35   19   23 1
    36   20   21 ar
    37   20   48 1
    38   21   22 1
    39   23   24 1
    40   23   49 1
    41   24   25 2
    42   24   26 1
    43   26   27 am
    44   26   50 1
    45   27   28 2
    46   27   29 1
    47   29   30 1
    48   29   51 1
    49   29   52 1
    50   30   35 ar
    51   30   31 ar
    52   31   32 ar
    53   31   53 1
    54   32   33 ar
    55   32   54 1
    56   33   34 ar
    57   33   55 1
    58   34   35 ar
    59   34   56 1
    60   35   57 1
@<TRIPOS>MOLECULE
CHEMBL511592
   51    55     0     0     0
SMALL
USER_CHARGES

@<TRIPOS>ATOM
      1 C1          0.2961    1.4468    0.1627 C.3       1 <0>        -0.0473
      2 N1          0.1548   -0.0128    0.0763 N.4       1 <0>        -0.3854
      3 C2         -1.2592   -0.3760    0.2338 C.3       1 <0>        -0.0224
      4 C3         -1.4234   -1.8857    0.0298 C.3       1 <0>         0.0975
      5 N2         -0.5114   -2.5826    0.9500 N.pl3     1 <0>        -0.6140
      6 C4          0.8995   -2.1666    0.9749 C.3       1 <0>         0.0987
      7 C5          0.9541   -0.6436    1.1342 C.3       1 <0>        -0.0224
      8 C6         -0.9688   -3.6025    1.7711 C.ar      1 <0>         0.3773
      9 C7         -2.2569   -4.1308    1.5766 C.ar      1 <0>         0.0501
     10 N3         -2.7052   -5.0954    2.3431 N.ar      1 <0>        -0.3722
     11 C8         -1.9313   -5.5842    3.3213 C.ar      1 <0>         0.0344
     12 C9         -2.3904   -6.6183    4.1549 C.ar      1 <0>        -0.0019
     13 C10        -1.5913   -7.1049    5.1450 C.ar      1 <0>        -0.1695
     14 C11        -0.3148   -6.5952    5.3533 C.ar      1 <0>        -0.0332
     15 C12         0.1765   -5.5768    4.5555 C.ar      1 <0>        -0.0217
     16 C13        -0.6339   -5.0541    3.5193 C.ar      1 <0>         0.1679
     17 N4         -0.1894   -4.0744    2.7264 N.ar      1 <0>        -0.4849
     18 C14         1.5374   -5.0386    4.7840 C.ar      1 <0>        -0.0346
     19 C15         2.4259   -4.9093    3.7142 C.ar      1 <0>        -0.0682
     20 C16         3.6927   -4.4089    3.9232 C.ar      1 <0>        -0.1098
     21 C17         4.0890   -4.0320    5.1992 C.ar      1 <0>         0.1016
     22 C18         3.2044   -4.1591    6.2737 C.ar      1 <0>         0.0928
     23 C19         1.9294   -4.6560    6.0653 C.ar      1 <0>        -0.0864
     24 N5          3.8788   -3.7064    7.4058 N.am      1 <0>        -0.6419
     25 H1          3.5190   -3.6741    8.3061 H         1 <0>         0.4390
     26 C20         5.1152   -3.3221    7.0370 C.2       1 <0>         0.6839
     27 O1          5.9632   -2.8765    7.7873 O.2       1 <0>        -0.5440
     28 N6          5.2717   -3.5064    5.7128 N.am      1 <0>        -0.6423
     29 H2          6.0725   -3.3070    5.2029 H         1 <0>         0.4377
     30 C21        -2.0997   -8.2140    6.0296 C.3       1 <0>         0.5102
     31 F1         -3.3967   -8.5642    5.6396 F         1 <0>        -0.1711
     32 F2         -1.2605   -9.3271    5.9108 F         1 <0>        -0.1687
     33 F3         -2.1137   -7.7804    7.3596 F         1 <0>        -0.1697
     34 H3          1.3444    1.7184    0.0379 H         1 <0>         0.1263
     35 H4         -0.2968    1.9164   -0.6222 H         1 <0>         0.1266
     36 H5         -0.0544    1.7888    1.1365 H         1 <0>         0.1220
     37 H6         -1.5944   -0.1060    1.2352 H         1 <0>         0.1342
     38 H7         -1.8561    0.1577   -0.5058 H         1 <0>         0.1474
     39 H8         -2.4521   -2.1746    0.2451 H         1 <0>         0.1303
     40 H9         -1.1746   -2.1455   -0.9991 H         1 <0>         0.1023
     41 H10         1.4065   -2.6412    1.8150 H         1 <0>         0.1416
     42 H11         1.3828   -2.4548    0.0414 H         1 <0>         0.0938
     43 H12         1.9880   -0.3071    1.0582 H         1 <0>         0.1440
     44 H13         0.5519   -0.3655    2.1084 H         1 <0>         0.1333
     45 H14        -2.8830   -3.7383    0.7889 H         1 <0>         0.1759
     46 H15        -3.3792   -7.0280    4.0105 H         1 <0>         0.1609
     47 H16         0.2991   -6.9976    6.1455 H         1 <0>         0.1529
     48 H17         2.1195   -5.2023    2.7209 H         1 <0>         0.1319
     49 H18         4.3777   -4.3104    3.0941 H         1 <0>         0.1348
     50 H19         1.2426   -4.7510    6.8934 H         1 <0>         0.1362
     51 H20         0.4823   -0.3284   -0.8244 H         1 <0>         0.4260
@<TRIPOS>BOND
     1    1    2 1
     2    1   34 1
     3    1   35 1
     4    1   36 1
     5    2    7 1
     6    2    3 1
     7    2   51 1
     8    3    4 1
     9    3   37 1
    10    3   38 1
    11    4    5 1
    12    4   39 1
    13    4   40 1
    14    5    6 1
    15    5    8 1
    16    6    7 1
    17    6   41 1
    18    6   42 1
    19    7   43 1
    20    7   44 1
    21    8   17 ar
    22    8    9 ar
    23    9   10 ar
    24    9   45 1
    25   10   11 ar
    26   11   16 ar
    27   11   12 ar
    28   12   13 ar
    29   12   46 1
    30   13   14 ar
    31   13   30 1
    32   14   15 ar
    33   14   47 1
    34   15   16 ar
    35   15   18 1
    36   16   17 ar
    37   18   23 ar
    38   18   19 ar
    39   19   20 ar
    40   19   48 1
    41   20   21 ar
    42   20   49 1
    43   21   28 1
    44   21   22 ar
    45   22   23 ar
    46   22   24 1
    47   23   50 1
    48   24   25 1
    49   24   26 am
    50   26   27 2
    51   26   28 am
    52   28   29 1
    53   30   31 1
    54   30   32 1
    55   30   33 1
@<TRIPOS>MOLECULE
CHEMBL511592__1
   50    54     0     0     0
SMALL
USER_CHARGES

@<TRIPOS>ATOM
      1 C1          0.2924    1.4475    0.1728 C.3       1 <0>         0.0241
      2 N1          0.1597   -0.0129    0.0847 N.3       1 <0>        -0.5428
      3 C2         -1.2505   -0.4184    0.1538 C.3       1 <0>         0.0382
      4 C3         -1.3603   -1.9218   -0.1221 C.3       1 <0>         0.1207
      5 N2         -0.4627   -2.6330    0.8007 N.pl3     1 <0>        -0.5878
      6 C4          0.9376   -2.1916    0.8879 C.3       1 <0>         0.1239
      7 C5          0.9569   -0.6776    1.1241 C.3       1 <0>         0.0392
      8 C6         -0.9246   -3.6915    1.5688 C.ar      1 <0>         0.3918
      9 C7         -2.1939   -4.2385    1.3122 C.ar      1 <0>         0.0498
     10 N3         -2.6460   -5.2396    2.0280 N.ar      1 <0>        -0.3813
     11 C8         -1.8943   -5.7481    3.0134 C.ar      1 <0>         0.0132
     12 C9         -2.3580   -6.8213    3.7933 C.ar      1 <0>         0.0053
     13 C10        -1.5814   -7.3274    4.7915 C.ar      1 <0>        -0.1889
     14 C11        -0.3239   -6.7996    5.0608 C.ar      1 <0>        -0.0376
     15 C12         0.1712   -5.7429    4.3172 C.ar      1 <0>        -0.0288
     16 C13        -0.6159   -5.1991    3.2739 C.ar      1 <0>         0.1793
     17 N4         -0.1670   -4.1821    2.5321 N.ar      1 <0>        -0.5041
     18 C14         1.5119   -5.1856    4.6105 C.ar      1 <0>        -0.0273
     19 C15         2.4320   -4.9989    3.5765 C.ar      1 <0>        -0.0624
     20 C16         3.6801   -4.4807    3.8459 C.ar      1 <0>        -0.1067
     21 C17         4.0260   -4.1428    5.1472 C.ar      1 <0>         0.0974
     22 C18         3.1095   -4.3274    6.1861 C.ar      1 <0>         0.0882
     23 C19         1.8532   -4.8423    5.9173 C.ar      1 <0>        -0.0890
     24 N5          3.7364   -3.9029    7.3558 N.am      1 <0>        -0.6419
     25 H1          3.3467   -3.9111    8.2440 H         1 <0>         0.4365
     26 C20         4.9757   -3.4801    7.0428 C.2       1 <0>         0.6844
     27 O1          5.7887   -3.0450    7.8368 O.2       1 <0>        -0.5536
     28 N6          5.1796   -3.6124    5.7188 N.am      1 <0>        -0.6415
     29 H2          5.9921   -3.3780    5.2436 H         1 <0>         0.4365
     30 C21        -2.0944   -8.4784    5.6181 C.3       1 <0>         0.5122
     31 F1         -3.3701   -8.8406    5.1723 F         1 <0>        -0.1744
     32 F2         -1.2278   -9.5689    5.4875 F         1 <0>        -0.1727
     33 F3         -2.1615   -8.0943    6.9616 F         1 <0>        -0.1735
     34 H3          1.3382    1.7258    0.0426 H         1 <0>         0.0723
     35 H4         -0.3078    1.9146   -0.6079 H         1 <0>         0.0720
     36 H5         -0.0547    1.7856    1.1492 H         1 <0>         0.0269
     37 H6         -1.6432   -0.2013    1.1472 H         1 <0>         0.0406
     38 H7         -1.8241    0.1312   -0.5925 H         1 <0>         0.0934
     39 H8         -2.3871   -2.2498    0.0402 H         1 <0>         0.0910
     40 H9         -1.0655   -2.1277   -1.1511 H         1 <0>         0.0866
     41 H10         1.4301   -2.6980    1.7180 H         1 <0>         0.1045
     42 H11         1.4533   -2.4234   -0.0439 H         1 <0>         0.0770
     43 H12         1.9843   -0.3159    1.0815 H         1 <0>         0.0895
     44 H13         0.5335   -0.4569    2.1040 H         1 <0>         0.0397
     45 H14        -2.8022   -3.8303    0.5186 H         1 <0>         0.1762
     46 H15        -3.3324   -7.2455    3.6011 H         1 <0>         0.1543
     47 H16         0.2723   -7.2182    5.8582 H         1 <0>         0.1464
     48 H17         2.1648   -5.2615    2.5636 H         1 <0>         0.1342
     49 H18         4.3897   -4.3378    3.0443 H         1 <0>         0.1350
     50 H19         1.1418   -4.9817    6.7178 H         1 <0>         0.1340
@<TRIPOS>BOND
     1    1    2 1
     2    1   34 1
     3    1   35 1
     4    1   36 1
     5    2    7 1
     6    2    3 1
     7    3    4 1
     8    3   37 1
     9    3   38 1
    10    4    5 1
    11    4   39 1
    12    4   40 1
    13    5    6 1
    14    5    8 1
    15    6    7 1
    16    6   41 1
    17    6   42 1
    18    7   43 1
    19    7   44 1
    20    8   17 ar
    21    8    9 ar
    22    9   10 ar
    23    9   45 1
    24   10   11 ar
    25   11   16 ar
    26   11   12 ar
    27   12   13 ar
    28   12   46 1
    29   13   14 ar
    30   13   30 1
    31   14   15 ar
    32   14   47 1
    33   15   16 ar
    34   15   18 1
    35   16   17 ar
    36   18   23 ar
    37   18   19 ar
    38   19   20 ar
    39   19   48 1
    40   20   21 ar
    41   20   49 1
    42   21   28 1
    43   21   22 ar
    44   22   23 ar
    45   22   24 1
    46   23   50 1
    47   24   25 1
    48   24   26 am
    49   26   27 2
    50   26   28 am
    51   28   29 1
    52   30   31 1
    53   30   32 1
    54   30   33 1
@<TRIPOS>MOLECULE
CHEMBL550305
   30    32     0     0     0
SMALL
USER_CHARGES

@<TRIPOS>ATOM
      1 C1          0.0289    1.4384    0.1470 C.ar      1 <0>        -0.0487
      2 C2          1.2182    2.0775   -0.1507 C.ar      1 <0>        -0.0940
      3 C3          2.3785    1.3422   -0.3031 C.ar      1 <0>        -0.0100
      4 C4          2.3500   -0.0324   -0.1573 C.ar      1 <0>        -0.6407
      5 C5          1.1612   -0.6712    0.1412 C.ar      1 <0>         0.0557
      6 C6          0.0003    0.0642    0.2922 C.ar      1 <0>        -0.0760
      7 N1          1.1305   -2.1429    0.2962 N.pl3     1 <0>        -0.0111
      8 O1          1.6547   -2.8492   -0.5332 O.2       1 <0>        -0.0940
      9 O2          0.5813   -2.6387    1.2524 O.3       1 <0>        -0.1266
     10 S1          3.8290   -0.9699   -0.3527 S.o2      1 <0>         2.6572
     11 O3          3.5322   -2.0093   -1.2751 O.2       1 <0>        -0.8756
     12 O4          4.8768   -0.0350   -0.5699 O.2       1 <0>        -0.9124
     13 N2          4.1407   -1.7011    1.1001 N.pl3     1 <0>        -0.8298
     14 C7          4.1350   -3.0500    1.3178 C.2       1 <0>         0.0609
     15 C8          4.4281   -3.3081    2.6034 C.2       1 <0>        -0.1337
     16 C9          4.6391   -2.0184    3.2638 C.ar      1 <0>         0.1238
     17 C10         4.4502   -1.0415    2.2677 C.ar      1 <0>         0.0373
     18 C11         4.5935    0.3009    2.6050 C.ar      1 <0>        -0.0783
     19 C12         4.9202    0.6173    3.9116 C.ar      1 <0>        -0.1464
     20 C13         5.0945   -0.3971    4.8404 C.ar      1 <0>         0.1077
     21 N3          4.9483   -1.6613    4.5068 N.ar      1 <0>        -0.4453
     22 H1         -0.8769    2.0134    0.2704 H         1 <0>         0.1611
     23 H2          1.2405    3.1512   -0.2646 H         1 <0>         0.1595
     24 H3          3.3074    1.8413   -0.5363 H         1 <0>         0.1683
     25 H4         -0.9287   -0.4350    0.5250 H         1 <0>         0.1592
     26 H5          3.9255   -3.7981    0.5676 H         1 <0>         0.2065
     27 H6          4.4955   -4.2831    3.0630 H         1 <0>         0.1719
     28 H7          4.4536    1.0758    1.8659 H         1 <0>         0.1360
     29 H8          5.0392    1.6494    4.2065 H         1 <0>         0.1497
     30 H9          5.3499   -0.1443    5.8589 H         1 <0>         0.1677
@<TRIPOS>BOND
     1    1    6 ar
     2    1    2 ar
     3    1   22 1
     4    2    3 ar
     5    2   23 1
     6    3    4 ar
     7    3   24 1
     8    4    5 ar
     9    4   10 1
    10    5    6 ar
    11    5    7 1
    12    6   25 1
    13    7    8 2
    14    7    9 1
    15   10   11 2
    16   10   12 2
    17   10   13 1
    18   13   17 1
    19   13   14 1
    20   14   15 2
    21   14   26 1
    22   15   16 1
    23   15   27 1
    24   16   21 ar
    25   16   17 ar
    26   17   18 ar
    27   18   19 ar
    28   18   28 1
    29   19   20 ar
    30   19   29 1
    31   20   21 ar
    32   20   30 1
@<TRIPOS>MOLECULE
CHEMBL494985
   44    47     0     0     0
SMALL
USER_CHARGES

@<TRIPOS>ATOM
      1 C1         -0.0178    1.4608    0.0101 C.3       1 <0>         0.0870
      2 N1          0.0021   -0.0041    0.0020 N.am      1 <0>        -0.7292
      3 C2          0.6044   -0.6754    1.0035 C.2       1 <0>         0.5482
      4 O1          1.1312   -0.0653    1.9136 O.2       1 <0>        -0.5049
      5 C3          0.6244   -2.1522    0.9954 C.ar      1 <0>        -0.1060
      6 C4          0.0241   -2.8540   -0.0531 C.ar      1 <0>        -0.0769
      7 C5          0.0433   -4.2303   -0.0598 C.ar      1 <0>        -0.0777
      8 C6          0.6617   -4.9258    0.9799 C.ar      1 <0>        -0.0181
      9 C7          1.2614   -4.2282    2.0272 C.ar      1 <0>        -0.0849
     10 C8          1.2489   -2.8492    2.0339 C.ar      1 <0>         0.0109
     11 Cl1         2.0018   -1.9798    3.3342 Cl        1 <0>        -0.0135
     12 C9          0.6807   -6.4087    0.9708 C.2       1 <0>         0.2115
     13 C10         1.3033   -7.1046    2.0290 C.2       1 <0>        -0.1611
     14 C11         1.3266   -8.4636    2.0310 C.2       1 <0>         0.0092
     15 C12         0.7237   -9.1616    0.9675 C.2       1 <0>         0.1348
     16 N2          0.5785  -10.4445    0.6800 N.2       1 <0>        -0.2452
     17 N3         -0.0610  -10.5644   -0.4306 N.2       1 <0>        -0.2477
     18 C13        -0.3587   -9.3835   -0.9127 C.2       1 <0>         0.2174
     19 N4          0.1247   -8.4555   -0.0495 N.pl3     1 <0>        -0.2944
     20 N5          0.1125   -7.0597   -0.0204 N.2       1 <0>        -0.2435
     21 C14        -1.1023   -9.1062   -2.1938 C.3       1 <0>         0.0100
     22 C15        -2.5807   -9.0336   -1.9108 C.ar      1 <0>        -0.1014
     23 C16        -3.3527  -10.1789   -1.9749 C.ar      1 <0>        -0.0819
     24 C17        -4.7083  -10.1149   -1.7164 C.ar      1 <0>        -0.1446
     25 C18        -5.2948   -8.9003   -1.3919 C.ar      1 <0>         0.1106
     26 C19        -4.5179   -7.7527   -1.3278 C.ar      1 <0>        -0.1470
     27 C20        -3.1619   -7.8229   -1.5821 C.ar      1 <0>        -0.0890
     28 O2         -6.6282   -8.8347   -1.1376 O.3       1 <0>        -0.4995
     29 H1          1.0048    1.8381    0.0023 H         1 <0>         0.0640
     30 H2         -0.5450    1.8219   -0.8730 H         1 <0>         0.0790
     31 H3         -0.5280    1.8123    0.9069 H         1 <0>         0.0639
     32 H4         -0.4183   -0.4908   -0.7241 H         1 <0>         0.4009
     33 H5         -0.4551   -2.3167   -0.8581 H         1 <0>         0.1441
     34 H6         -0.4211   -4.7724   -0.8703 H         1 <0>         0.1489
     35 H7          1.7395   -4.7676    2.8315 H         1 <0>         0.1519
     36 H8          1.7623   -6.5564    2.8384 H         1 <0>         0.1658
     37 H9          1.8020   -9.0011    2.8381 H         1 <0>         0.1747
     38 H10        -0.7653   -8.1575   -2.6115 H         1 <0>         0.1018
     39 H11        -0.9078   -9.9069   -2.9074 H         1 <0>         0.1164
     40 H12        -2.8957  -11.1242   -2.2276 H         1 <0>         0.1340
     41 H13        -5.3110  -11.0097   -1.7673 H         1 <0>         0.1322
     42 H14        -4.9722   -6.8059   -1.0754 H         1 <0>         0.1296
     43 H15        -2.5559   -6.9305   -1.5280 H         1 <0>         0.1269
     44 H16        -6.8584   -8.9692   -0.2081 H         1 <0>         0.3925
@<TRIPOS>BOND
     1    1    2 1
     2    1   29 1
     3    1   30 1
     4    1   31 1
     5    2    3 am
     6    2   32 1
     7    3    4 2
     8    3    5 1
     9    5   10 ar
    10    5    6 ar
    11    6    7 ar
    12    6   33 1
    13    7    8 ar
    14    7   34 1
    15    8    9 ar
    16    8   12 1
    17    9   10 ar
    18    9   35 1
    19   10   11 1
    20   12   20 2
    21   12   13 1
    22   13   14 2
    23   13   36 1
    24   14   15 1
    25   14   37 1
    26   15   19 1
    27   15   16 2
    28   16   17 1
    29   17   18 2
    30   18   19 1
    31   18   21 1
    32   19   20 1
    33   21   22 1
    34   21   38 1
    35   21   39 1
    36   22   27 ar
    37   22   23 ar
    38   23   24 ar
    39   23   40 1
    40   24   25 ar
    41   24   41 1
    42   25   26 ar
    43   25   28 1
    44   26   27 ar
    45   26   42 1
    46   27   43 1
    47   28   44 1
@<TRIPOS>MOLECULE
CHEMBL494979
   46    50     0     0     0
SMALL
USER_CHARGES

@<TRIPOS>ATOM
      1 C1         -0.0173    1.4248    0.0099 C.3       1 <0>         0.0239
      2 O1          0.0021   -0.0041    0.0020 O.3       1 <0>        -0.3108
      3 C2          0.6055   -0.6068   -1.0552 C.ar      1 <0>         0.1597
      4 C3          1.1742    0.1760   -2.0647 C.ar      1 <0>        -0.2016
      5 C4          1.7847   -0.4031   -3.1337 C.ar      1 <0>        -0.0332
      6 C5          1.8473   -1.8015   -3.2292 C.ar      1 <0>        -0.1513
      7 C6          2.4748   -2.4336   -4.3263 C.ar      1 <0>         0.2063
      8 C7          2.4980   -3.8167   -4.3519 C.ar      1 <0>        -0.2930
      9 C8          1.9139   -4.5349   -3.3163 C.ar      1 <0>         0.1826
     10 N1          1.3332   -3.9379   -2.3020 N.ar      1 <0>        -0.5022
     11 C9          1.2747   -2.6040   -2.2127 C.ar      1 <0>         0.1992
     12 C10         0.6550   -1.9807   -1.1174 C.ar      1 <0>        -0.1527
     13 O2          3.0365   -1.7068   -5.3235 O.3       1 <0>        -0.2987
     14 C11         3.6478   -2.4339   -6.3911 C.3       1 <0>         0.1521
     15 C12         4.2137   -1.4664   -7.3984 C.2       1 <0>         0.1973
     16 N2          3.5828   -0.9719   -8.4342 N.2       1 <0>        -0.2210
     17 N3          4.3557   -0.1766   -9.0881 N.2       1 <0>        -0.2387
     18 C13         5.5352   -0.1250   -8.4911 C.2       1 <0>         0.1458
     19 N4          5.4613   -0.9483   -7.3926 N.pl3     1 <0>        -0.2838
     20 N5          6.5666   -1.0952   -6.5521 N.2       1 <0>        -0.2424
     21 C14         7.6836   -0.4475   -6.8002 C.2       1 <0>         0.2181
     22 C15         7.7896    0.4075   -7.9179 C.2       1 <0>        -0.1553
     23 C16         6.7334    0.5639   -8.7589 C.2       1 <0>         0.0111
     24 C17         8.8460   -0.6172   -5.8944 C.ar      1 <0>        -0.0095
     25 C18        10.0328    0.0690   -6.1450 C.ar      1 <0>        -0.1003
     26 C19        11.1136   -0.0915   -5.2991 C.ar      1 <0>         0.1038
     27 C20        11.0183   -0.9343   -4.2016 C.ar      1 <0>         0.0610
     28 C21         9.8388   -1.6192   -3.9494 C.ar      1 <0>         0.1023
     29 C22         8.7519   -1.4587   -4.7876 C.ar      1 <0>        -0.0907
     30 F1          9.7505   -2.4394   -2.8795 F         1 <0>        -0.1086
     31 F2         12.0770   -1.0889   -3.3767 F         1 <0>        -0.1060
     32 F3         12.2647    0.5729   -5.5416 F         1 <0>        -0.1083
     33 H1          1.0053    1.8021    0.0021 H         1 <0>         0.0581
     34 H2         -0.5445    1.7859   -0.8732 H         1 <0>         0.0588
     35 H3         -0.5275    1.7763    0.9067 H         1 <0>         0.1047
     36 H4          1.1279    1.2527   -1.9952 H         1 <0>         0.1367
     37 H5          2.2200    0.2123   -3.9073 H         1 <0>         0.1357
     38 H6          2.9681   -4.3359   -5.1740 H         1 <0>         0.1426
     39 H7          1.9379   -5.6142   -3.3469 H         1 <0>         0.1648
     40 H8          0.2163   -2.5761   -0.3304 H         1 <0>         0.1480
     41 H9          4.4501   -3.0560   -5.9943 H         1 <0>         0.0981
     42 H10         2.9025   -3.0662   -6.8735 H         1 <0>         0.1135
     43 H11         8.7135    0.9330   -8.1091 H         1 <0>         0.1706
     44 H12         6.8082    1.2184   -9.6147 H         1 <0>         0.1800
     45 H13        10.1078    0.7251   -6.9996 H         1 <0>         0.1671
     46 H14         7.8323   -1.9885   -4.5878 H         1 <0>         0.1662
@<TRIPOS>BOND
     1    1    2 1
     2    1   33 1
     3    1   34 1
     4    1   35 1
     5    2    3 1
     6    3   12 ar
     7    3    4 ar
     8    4    5 ar
     9    4   36 1
    10    5    6 ar
    11    5   37 1
    12    6   11 ar
    13    6    7 ar
    14    7    8 ar
    15    7   13 1
    16    8    9 ar
    17    8   38 1
    18    9   10 ar
    19    9   39 1
    20   10   11 ar
    21   11   12 ar
    22   12   40 1
    23   13   14 1
    24   14   15 1
    25   14   41 1
    26   14   42 1
    27   15   19 1
    28   15   16 2
    29   16   17 1
    30   17   18 2
    31   18   23 1
    32   18   19 1
    33   19   20 1
    34   20   21 2
    35   21   22 1
    36   21   24 1
    37   22   23 2
    38   22   43 1
    39   23   44 1
    40   24   29 ar
    41   24   25 ar
    42   25   26 ar
    43   25   45 1
    44   26   27 ar
    45   26   32 1
    46   27   28 ar
    47   27   31 1
    48   28   29 ar
    49   28   30 1
    50   29   46 1
@<TRIPOS>MOLECULE
CHEMBL494979__1
   47    51     0     0     0
SMALL
USER_CHARGES

@<TRIPOS>ATOM
      1 C1         -0.0173    1.4248    0.0099 C.3       1 <0>         0.0136
      2 O1          0.0021   -0.0041    0.0020 O.3       1 <0>        -0.2924
      3 C2          0.6055   -0.6068   -1.0552 C.ar      1 <0>         0.2299
      4 C3          1.1742    0.1760   -2.0647 C.ar      1 <0>        -0.1923
      5 C4          1.7847   -0.4031   -3.1337 C.ar      1 <0>         0.0024
      6 C5          1.8473   -1.8015   -3.2292 C.ar      1 <0>        -0.1439
      7 C6          2.4748   -2.4336   -4.3263 C.ar      1 <0>         0.3087
      8 C7          2.4980   -3.8167   -4.3519 C.ar      1 <0>        -0.2908
      9 C8          1.9139   -4.5349   -3.3163 C.ar      1 <0>         0.2478
     10 N1          1.3332   -3.9379   -2.3020 N.ar      1 <0>        -0.4922
     11 C9          1.2747   -2.6040   -2.2127 C.ar      1 <0>         0.2087
     12 C10         0.6550   -1.9807   -1.1174 C.ar      1 <0>        -0.2025
     13 O2          3.0365   -1.7068   -5.3235 O.3       1 <0>        -0.2712
     14 C11         3.6478   -2.4339   -6.3911 C.3       1 <0>         0.1468
     15 C12         4.2137   -1.4664   -7.3984 C.2       1 <0>         0.1713
     16 N2          3.5828   -0.9719   -8.4342 N.2       1 <0>        -0.2116
     17 N3          4.3557   -0.1766   -9.0881 N.2       1 <0>        -0.2327
     18 C13         5.5352   -0.1250   -8.4911 C.2       1 <0>         0.1593
     19 N4          5.4613   -0.9483   -7.3926 N.pl3     1 <0>        -0.2825
     20 N5          6.5666   -1.0952   -6.5521 N.2       1 <0>        -0.2550
     21 C14         7.6836   -0.4475   -6.8002 C.2       1 <0>         0.2303
     22 C15         7.7896    0.4075   -7.9179 C.2       1 <0>        -0.1505
     23 C16         6.7334    0.5639   -8.7589 C.2       1 <0>         0.0108
     24 C17         8.8460   -0.6172   -5.8944 C.ar      1 <0>        -0.0164
     25 C18        10.0328    0.0690   -6.1450 C.ar      1 <0>        -0.0972
     26 C19        11.1136   -0.0915   -5.2991 C.ar      1 <0>         0.1072
     27 C20        11.0183   -0.9343   -4.2016 C.ar      1 <0>         0.0662
     28 C21         9.8388   -1.6192   -3.9494 C.ar      1 <0>         0.1000
     29 C22         8.7519   -1.4587   -4.7876 C.ar      1 <0>        -0.0913
     30 F1          9.7505   -2.4394   -2.8795 F         1 <0>        -0.1094
     31 F2         12.0770   -1.0889   -3.3767 F         1 <0>        -0.1025
     32 F3         12.2647    0.5729   -5.5416 F         1 <0>        -0.1044
     33 H1          1.0053    1.8021    0.0021 H         1 <0>         0.0707
     34 H2         -0.5445    1.7859   -0.8732 H         1 <0>         0.0714
     35 H3         -0.5275    1.7763    0.9067 H         1 <0>         0.1203
     36 H4          1.1279    1.2527   -1.9952 H         1 <0>         0.1602
     37 H5          2.2200    0.2123   -3.9073 H         1 <0>         0.1625
     38 H6          2.9681   -4.3359   -5.1740 H         1 <0>         0.1865
     39 H7          1.9379   -5.6142   -3.3469 H         1 <0>         0.2146
     40 H8          0.2163   -2.5761   -0.3304 H         1 <0>         0.1679
     41 H9          4.4501   -3.0560   -5.9943 H         1 <0>         0.1132
     42 H10         2.9025   -3.0662   -6.8735 H         1 <0>         0.1286
     43 H11         8.7135    0.9330   -8.1091 H         1 <0>         0.1744
     44 H12         6.8082    1.2184   -9.6147 H         1 <0>         0.1843
     45 H13        10.1078    0.7251   -6.9996 H         1 <0>         0.1687
     46 H14         7.8323   -1.9885   -4.5878 H         1 <0>         0.1629
     47 H15         0.9366   -4.4769   -1.5997 H         1 <0>         0.4497
@<TRIPOS>BOND
     1    1    2 1
     2    1   33 1
     3    1   34 1
     4    1   35 1
     5    2    3 1
     6    3   12 ar
     7    3    4 ar
     8    4    5 ar
     9    4   36 1
    10    5    6 ar
    11    5   37 1
    12    6   11 ar
    13    6    7 ar
    14    7    8 ar
    15    7   13 1
    16    8    9 ar
    17    8   38 1
    18    9   10 ar
    19    9   39 1
    20   10   11 ar
    21   10   47 1
    22   11   12 ar
    23   12   40 1
    24   13   14 1
    25   14   15 1
    26   14   41 1
    27   14   42 1
    28   15   19 1
    29   15   16 2
    30   16   17 1
    31   17   18 2
    32   18   23 1
    33   18   19 1
    34   19   20 1
    35   20   21 2
    36   21   22 1
    37   21   24 1
    38   22   23 2
    39   22   43 1
    40   23   44 1
    41   24   29 ar
    42   24   25 ar
    43   25   26 ar
    44   25   45 1
    45   26   27 ar
    46   26   32 1
    47   27   28 ar
    48   27   31 1
    49   28   29 ar
    50   28   30 1
    51   29   46 1
@<TRIPOS>MOLECULE
CHEMBL497117
   34    37     0     0     0
SMALL
USER_CHARGES

@<TRIPOS>ATOM
      1 C1         -0.0167    1.3784    0.0096 C.ar      1 <0>        -0.0823
      2 C2          1.1695    2.0865    0.0021 C.ar      1 <0>        -0.1451
      3 C3          2.3802    1.4093   -0.0131 C.ar      1 <0>         0.1099
      4 C4          2.3963    0.0221   -0.0206 C.ar      1 <0>        -0.1471
      5 C5          1.2074   -0.6814   -0.0130 C.ar      1 <0>        -0.0885
      6 C6          0.0021   -0.0041    0.0020 C.ar      1 <0>        -0.1005
      7 C7         -1.2934   -0.7740    0.0107 C.3       1 <0>         0.0106
      8 C8         -1.7392   -1.0230   -1.4071 C.2       1 <0>         0.2138
      9 N1         -2.5036   -0.2388   -2.1262 N.2       1 <0>        -0.2508
     10 N2         -2.6899   -0.7483   -3.2937 N.2       1 <0>        -0.2468
     11 C9         -2.0429   -1.8996   -3.3759 C.2       1 <0>         0.1305
     12 N3         -1.4181   -2.0920   -2.1675 N.pl3     1 <0>        -0.2908
     13 N4         -0.6451   -3.2349   -1.9528 N.2       1 <0>        -0.2532
     14 C10        -0.5058   -4.1339   -2.9028 C.2       1 <0>         0.2314
     15 C11        -1.1326   -3.9629   -4.1561 C.2       1 <0>        -0.1584
     16 C12        -1.8970   -2.8645   -4.3912 C.2       1 <0>         0.0048
     17 C13         0.3191   -5.3402   -2.6548 C.2       1 <0>        -0.0882
     18 C14         0.9441   -5.5355   -1.4262 C.2       1 <0>        -0.1354
     19 C15         1.6881   -6.6480   -1.2380 C.2       1 <0>        -0.1695
     20 S1          1.5344   -7.4774   -2.8108 S.3       1 <0>         0.0913
     21 C16         0.4795   -6.2903   -3.6257 C.2       1 <0>        -0.1375
     22 O1          3.5484    2.1036   -0.0209 O.3       1 <0>        -0.4996
     23 H1         -0.9594    1.9052    0.0259 H         1 <0>         0.1338
     24 H2          1.1543    3.1664    0.0076 H         1 <0>         0.1320
     25 H3          3.3375   -0.5074   -0.0328 H         1 <0>         0.1293
     26 H4          1.2194   -1.7613   -0.0189 H         1 <0>         0.1269
     27 H5         -1.1460   -1.7274    0.5180 H         1 <0>         0.1007
     28 H6         -2.0553   -0.1973    0.5352 H         1 <0>         0.1150
     29 H7         -1.0089   -4.7089   -4.9272 H         1 <0>         0.1623
     30 H8         -2.3778   -2.7277   -5.3485 H         1 <0>         0.1724
     31 H9          0.8362   -4.8083   -0.6350 H         1 <0>         0.1456
     32 H10         2.2362   -6.9564   -0.3599 H         1 <0>         0.1934
     33 H11         0.0743   -6.3149   -4.6265 H         1 <0>         0.1975
     34 H12         3.8951    2.3001    0.8601 H         1 <0>         0.3923
@<TRIPOS>BOND
     1    1    6 ar
     2    1    2 ar
     3    1   23 1
     4    2    3 ar
     5    2   24 1
     6    3    4 ar
     7    3   22 1
     8    4    5 ar
     9    4   25 1
    10    5    6 ar
    11    5   26 1
    12    6    7 1
    13    7    8 1
    14    7   27 1
    15    7   28 1
    16    8   12 1
    17    8    9 2
    18    9   10 1
    19   10   11 2
    20   11   16 1
    21   11   12 1
    22   12   13 1
    23   13   14 2
    24   14   15 1
    25   14   17 1
    26   15   16 2
    27   15   29 1
    28   16   30 1
    29   17   21 2
    30   17   18 1
    31   18   19 2
    32   18   31 1
    33   19   20 1
    34   19   32 1
    35   20   21 1
    36   21   33 1
    37   22   34 1
@<TRIPOS>MOLECULE
CHEMBL497118
   37    40     0     0     0
SMALL
USER_CHARGES

@<TRIPOS>ATOM
      1 C1         -0.0184    1.5028    0.0103 C.3       1 <0>        -0.1012
      2 C2          0.0021   -0.0041    0.0020 C.2       1 <0>        -0.1341
      3 C3          0.0055   -0.6946   -1.1889 C.2       1 <0>        -0.0814
      4 C4          0.0247   -2.0641   -1.1562 C.2       1 <0>        -0.1476
      5 S1          0.0385   -2.3897    0.5992 S.3       1 <0>         0.1068
      6 C5          0.0231   -0.6981    1.1697 C.2       1 <0>        -0.1496
      7 C6          0.0322   -3.0218   -2.2806 C.2       1 <0>         0.2620
      8 C7          0.0470   -4.4101   -2.0160 C.2       1 <0>        -0.1586
      9 C8          0.0540   -5.2987   -3.0431 C.2       1 <0>         0.0098
     10 C9          0.0457   -4.8186   -4.3673 C.2       1 <0>         0.1305
     11 N1          0.0491   -5.4056   -5.5531 N.2       1 <0>        -0.2441
     12 N2          0.0374   -4.5050   -6.4730 N.2       1 <0>        -0.2496
     13 C10         0.0260   -3.3101   -5.9363 C.2       1 <0>         0.2168
     14 N3          0.0309   -3.4635   -4.5943 N.pl3     1 <0>        -0.2897
     15 N4          0.0194   -2.5729   -3.5188 N.2       1 <0>        -0.2477
     16 C11         0.0104   -2.0004   -6.6817 C.3       1 <0>         0.0097
     17 C12        -1.4155   -1.5786   -6.9262 C.ar      1 <0>        -0.1006
     18 C13        -2.0671   -1.9827   -8.0768 C.ar      1 <0>        -0.0821
     19 C14        -3.3741   -1.5970   -8.3036 C.ar      1 <0>        -0.1450
     20 C15        -4.0330   -0.8039   -7.3754 C.ar      1 <0>         0.1100
     21 C16        -3.3771   -0.4001   -6.2215 C.ar      1 <0>        -0.1469
     22 C17        -2.0718   -0.7928   -5.9970 C.ar      1 <0>        -0.0885
     23 O1         -5.3186   -0.4227   -7.5964 O.3       1 <0>        -0.4994
     24 H1          1.0042    1.8801    0.0026 H         1 <0>         0.0730
     25 H2         -0.5455    1.8639   -0.8728 H         1 <0>         0.0688
     26 H3         -0.5286    1.8543    0.9071 H         1 <0>         0.0705
     27 H4         -0.0072   -0.1667   -2.1311 H         1 <0>         0.1445
     28 H5          0.0276   -0.3231    2.1825 H         1 <0>         0.1955
     29 H6          0.0532   -4.7648   -0.9959 H         1 <0>         0.1613
     30 H7          0.0660   -6.3606   -2.8469 H         1 <0>         0.1748
     31 H8          0.5180   -1.2392   -6.0893 H         1 <0>         0.1015
     32 H9          0.5229   -2.1196   -7.6363 H         1 <0>         0.1160
     33 H10        -1.5538   -2.6002   -8.7990 H         1 <0>         0.1340
     34 H11        -3.8824   -1.9124   -9.2028 H         1 <0>         0.1321
     35 H12        -3.8879    0.2174   -5.4975 H         1 <0>         0.1293
     36 H13        -1.5622   -0.4824   -5.0968 H         1 <0>         0.1271
     37 H14        -5.9770   -1.0372   -7.2443 H         1 <0>         0.3921
@<TRIPOS>BOND
     1    1    2 1
     2    1   24 1
     3    1   25 1
     4    1   26 1
     5    2    6 2
     6    2    3 1
     7    3    4 2
     8    3   27 1
     9    4    5 1
    10    4    7 1
    11    5    6 1
    12    6   28 1
    13    7   15 2
    14    7    8 1
    15    8    9 2
    16    8   29 1
    17    9   10 1
    18    9   30 1
    19   10   14 1
    20   10   11 2
    21   11   12 1
    22   12   13 2
    23   13   14 1
    24   13   16 1
    25   14   15 1
    26   16   17 1
    27   16   31 1
    28   16   32 1
    29   17   22 ar
    30   17   18 ar
    31   18   19 ar
    32   18   33 1
    33   19   20 ar
    34   19   34 1
    35   20   21 ar
    36   20   23 1
    37   21   22 ar
    38   21   35 1
    39   22   36 1
    40   23   37 1
@<TRIPOS>MOLECULE
CHEMBL523413
   36    39     0     0     0
SMALL
USER_CHARGES

@<TRIPOS>ATOM
      1 C1         -0.0184    1.5028    0.0103 C.3       1 <0>        -0.0933
      2 C2          0.0021   -0.0041    0.0020 C.2       1 <0>         0.0939
      3 C3          0.0051   -0.6802   -1.1933 C.2       1 <0>        -0.1365
      4 C4          0.0244   -2.0629   -1.0898 C.2       1 <0>        -0.1223
      5 S1          0.0364   -2.2745    0.6813 S.3       1 <0>         0.2761
      6 N1          0.0222   -0.6606    1.1339 N.2       1 <0>        -0.4204
      7 C5          0.0321   -3.0851   -2.1582 C.2       1 <0>         0.2539
      8 C6          0.0468   -4.4550   -1.8140 C.2       1 <0>        -0.1602
      9 C7          0.0540   -5.4020   -2.7881 C.2       1 <0>         0.0148
     10 C8          0.0466   -4.9993   -4.1374 C.2       1 <0>         0.1316
     11 N2          0.0503   -5.6532   -5.2875 N.2       1 <0>        -0.2412
     12 N3          0.0393   -4.8071   -6.2576 N.2       1 <0>        -0.2475
     13 C9          0.0281   -3.5833   -5.7909 C.2       1 <0>         0.2196
     14 N4          0.0322   -3.6589   -4.4421 N.pl3     1 <0>        -0.2913
     15 N5          0.0197   -2.7083   -3.4194 N.2       1 <0>        -0.2346
     16 C10         0.0137   -2.3189   -6.6107 C.3       1 <0>         0.0091
     17 C11        -1.4118   -1.9112   -6.8804 C.ar      1 <0>        -0.1017
     18 C12        -2.0627   -2.3809   -8.0063 C.ar      1 <0>        -0.0818
     19 C13        -3.3693   -2.0083   -8.2560 C.ar      1 <0>        -0.1448
     20 C14        -4.0286   -1.1626   -7.3757 C.ar      1 <0>         0.1107
     21 C15        -3.3735   -0.6932   -6.2465 C.ar      1 <0>        -0.1470
     22 C16        -2.0685   -1.0728   -5.9986 C.ar      1 <0>        -0.0888
     23 O1         -5.3138   -0.7944   -7.6194 O.3       1 <0>        -0.4994
     24 H1          1.0042    1.8801    0.0026 H         1 <0>         0.0871
     25 H2         -0.5455    1.8639   -0.8728 H         1 <0>         0.0848
     26 H3         -0.5286    1.8543    0.9071 H         1 <0>         0.0826
     27 H4         -0.0071   -0.1714   -2.1459 H         1 <0>         0.1701
     28 H5          0.0528   -4.7500   -0.7750 H         1 <0>         0.1643
     29 H6          0.0656   -6.4508   -2.5307 H         1 <0>         0.1773
     30 H7          0.5212   -1.5248   -6.0629 H         1 <0>         0.1024
     31 H8          0.5269   -2.4931   -7.5564 H         1 <0>         0.1169
     32 H9         -1.5490   -3.0392   -8.6912 H         1 <0>         0.1341
     33 H10        -3.8771   -2.3748   -9.1359 H         1 <0>         0.1323
     34 H11        -3.8845   -0.0347   -5.5598 H         1 <0>         0.1296
     35 H12        -1.5595   -0.7112   -5.1174 H         1 <0>         0.1273
     36 H13        -5.9729   -1.3872   -7.2330 H         1 <0>         0.3925
@<TRIPOS>BOND
     1    1    2 1
     2    1   24 1
     3    1   25 1
     4    1   26 1
     5    2    6 2
     6    2    3 1
     7    3    4 2
     8    3   27 1
     9    4    5 1
    10    4    7 1
    11    5    6 1
    12    7   15 2
    13    7    8 1
    14    8    9 2
    15    8   28 1
    16    9   10 1
    17    9   29 1
    18   10   14 1
    19   10   11 2
    20   11   12 1
    21   12   13 2
    22   13   14 1
    23   13   16 1
    24   14   15 1
    25   16   17 1
    26   16   30 1
    27   16   31 1
    28   17   22 ar
    29   17   18 ar
    30   18   19 ar
    31   18   32 1
    32   19   20 ar
    33   19   33 1
    34   20   21 ar
    35   20   23 1
    36   21   22 ar
    37   21   34 1
    38   22   35 1
    39   23   36 1
@<TRIPOS>MOLECULE
CHEMBL497119
   34    37     0     0     0
SMALL
USER_CHARGES

@<TRIPOS>ATOM
      1 C1         -0.0162    1.3438    0.0094 C.2       1 <0>        -0.2209
      2 C2          1.3246    1.7748   -0.0011 C.2       1 <0>        -0.1226
      3 C3          2.0960    0.6547   -0.0144 C.2       1 <0>        -0.0019
      4 O1          1.2793   -0.4167   -0.0124 O.3       1 <0>        -0.1619
      5 C4          0.0021   -0.0041    0.0020 C.2       1 <0>         0.0049
      6 C5          3.5724    0.6192   -0.0292 C.2       1 <0>         0.2556
      7 C6          4.2414   -0.6257   -0.0481 C.2       1 <0>        -0.1559
      8 C7          5.5988   -0.6688   -0.0622 C.2       1 <0>         0.0074
      9 C8          6.3248    0.5382   -0.0577 C.2       1 <0>         0.1318
     10 N1          7.6154    0.8294   -0.0674 N.2       1 <0>        -0.2439
     11 N2          7.7626    2.1083   -0.0561 N.2       1 <0>        -0.2487
     12 C9          6.5932    2.6983   -0.0388 C.2       1 <0>         0.2177
     13 N3          5.6475    1.7338   -0.0392 N.pl3     1 <0>        -0.2885
     14 N4          4.2512    1.7480   -0.0300 N.2       1 <0>        -0.2437
     15 C10         6.3474    4.1850   -0.0212 C.3       1 <0>         0.0095
     16 C11         6.2511    4.6951   -1.4360 C.ar      1 <0>        -0.1012
     17 C12         7.3899    5.1190   -2.0958 C.ar      1 <0>        -0.0820
     18 C13         7.3043    5.5874   -3.3925 C.ar      1 <0>        -0.1450
     19 C14         6.0744    5.6318   -4.0330 C.ar      1 <0>         0.1102
     20 C15         4.9334    5.2055   -3.3690 C.ar      1 <0>        -0.1470
     21 C16         5.0251    4.7331   -2.0740 C.ar      1 <0>        -0.0886
     22 O2          5.9875    6.0926   -5.3085 O.3       1 <0>        -0.4995
     23 H1         -0.8931    1.9740    0.0252 H         1 <0>         0.1607
     24 H2          1.6728    2.7972    0.0011 H         1 <0>         0.1613
     25 H3         -0.8668   -0.6455    0.0072 H         1 <0>         0.2167
     26 H4          3.6726   -1.5437   -0.0509 H         1 <0>         0.1667
     27 H5          6.1154   -1.6171   -0.0763 H         1 <0>         0.1749
     28 H6          5.4152    4.3929    0.5042 H         1 <0>         0.1021
     29 H7          7.1713    4.6835    0.4895 H         1 <0>         0.1165
     30 H8          8.3471    5.0842   -1.5967 H         1 <0>         0.1341
     31 H9          8.1940    5.9190   -3.9072 H         1 <0>         0.1321
     32 H10         3.9748    5.2392   -3.8654 H         1 <0>         0.1296
     33 H11         4.1378    4.3970   -1.5582 H         1 <0>         0.1275
     34 H12         6.0915    5.4069   -5.9824 H         1 <0>         0.3922
@<TRIPOS>BOND
     1    1    5 2
     2    1    2 1
     3    1   23 1
     4    2    3 2
     5    2   24 1
     6    3    4 1
     7    3    6 1
     8    4    5 1
     9    5   25 1
    10    6   14 2
    11    6    7 1
    12    7    8 2
    13    7   26 1
    14    8    9 1
    15    8   27 1
    16    9   13 1
    17    9   10 2
    18   10   11 1
    19   11   12 2
    20   12   13 1
    21   12   15 1
    22   13   14 1
    23   15   16 1
    24   15   28 1
    25   15   29 1
    26   16   21 ar
    27   16   17 ar
    28   17   18 ar
    29   17   30 1
    30   18   19 ar
    31   18   31 1
    32   19   20 ar
    33   19   22 1
    34   20   21 ar
    35   20   32 1
    36   21   33 1
    37   22   34 1
@<TRIPOS>MOLECULE
CHEMBL498769
   36    39     0     0     0
SMALL
USER_CHARGES

@<TRIPOS>ATOM
      1 C1         -0.0167    1.3791    0.0096 C.ar      1 <0>        -0.0867
      2 C2          1.1686    2.0921    0.0021 C.ar      1 <0>        -0.1188
      3 C3          2.3774    1.4262   -0.0134 C.ar      1 <0>        -0.0802
      4 C4          2.4023    0.0328   -0.0211 C.ar      1 <0>        -0.0628
      5 C5          1.2050   -0.6804   -0.0130 C.ar      1 <0>        -0.0689
      6 C6          0.0021   -0.0041    0.0020 C.ar      1 <0>        -0.1219
      7 C7          3.6985   -0.6885   -0.0382 C.2       1 <0>         0.1645
      8 C8          4.9126    0.0346   -0.0411 C.2       1 <0>         0.1454
      9 N1          6.0645   -0.5873   -0.0562 N.2       1 <0>        -0.3633
     10 C9          6.1206   -1.9237   -0.0694 C.2       1 <0>         0.2834
     11 N2          7.1184   -2.7930   -0.0856 N.2       1 <0>        -0.2164
     12 N3          6.6461   -3.9899   -0.0933 N.2       1 <0>        -0.2359
     13 C10         5.3374   -3.9623   -0.0826 C.2       1 <0>         0.2263
     14 N4          4.9577   -2.6601   -0.0671 N.pl3     1 <0>        -0.3330
     15 N5          3.7221   -2.0066   -0.0455 N.2       1 <0>        -0.2054
     16 C11         4.4204   -5.1582   -0.0866 C.3       1 <0>         0.0095
     17 C12         4.1257   -5.5700    1.3327 C.ar      1 <0>        -0.1034
     18 C13         4.9447   -6.4833    1.9706 C.ar      1 <0>        -0.0812
     19 C14         4.6763   -6.8628    3.2715 C.ar      1 <0>        -0.1444
     20 C15         3.5842   -6.3264    3.9381 C.ar      1 <0>         0.1117
     21 C16         2.7643   -5.4098    3.2960 C.ar      1 <0>        -0.1468
     22 C17         3.0399   -5.0297    1.9967 C.ar      1 <0>        -0.0893
     23 O1          3.3179   -6.6984    5.2177 O.3       1 <0>        -0.4991
     24 H1         -0.9603    1.9042    0.0260 H         1 <0>         0.1321
     25 H2          1.1481    3.1719    0.0081 H         1 <0>         0.1363
     26 H3          3.3022    1.9839   -0.0199 H         1 <0>         0.1358
     27 H4          1.2185   -1.7603   -0.0192 H         1 <0>         0.1348
     28 H5         -0.9264   -0.5557    0.0079 H         1 <0>         0.1335
     29 H6          4.8898    1.1143   -0.0309 H         1 <0>         0.2041
     30 H7          3.4892   -4.9003   -0.5910 H         1 <0>         0.1032
     31 H8          4.9017   -5.9832   -0.6119 H         1 <0>         0.1194
     32 H9          5.7947   -6.9006    1.4513 H         1 <0>         0.1350
     33 H10         5.3159   -7.5767    3.7691 H         1 <0>         0.1330
     34 H11         1.9135   -4.9909    3.8127 H         1 <0>         0.1302
     35 H12         2.4044   -4.3129    1.4979 H         1 <0>         0.1267
     36 H13         3.7466   -6.1457    5.8854 H         1 <0>         0.3928
@<TRIPOS>BOND
     1    1    6 ar
     2    1    2 ar
     3    1   24 1
     4    2    3 ar
     5    2   25 1
     6    3    4 ar
     7    3   26 1
     8    4    5 ar
     9    4    7 1
    10    5    6 ar
    11    5   27 1
    12    6   28 1
    13    7   15 2
    14    7    8 1
    15    8    9 2
    16    8   29 1
    17    9   10 1
    18   10   14 1
    19   10   11 2
    20   11   12 1
    21   12   13 2
    22   13   14 1
    23   13   16 1
    24   14   15 1
    25   16   17 1
    26   16   30 1
    27   16   31 1
    28   17   22 ar
    29   17   18 ar
    30   18   19 ar
    31   18   32 1
    32   19   20 ar
    33   19   33 1
    34   20   21 ar
    35   20   23 1
    36   21   22 ar
    37   21   34 1
    38   22   35 1
    39   23   36 1
@<TRIPOS>MOLECULE
CHEMBL461831
   60    64     0     0     0
SMALL
USER_CHARGES

@<TRIPOS>ATOM
      1 C1          0.0982    1.4594   -0.0071 C.3       1 <0>         0.0473
      2 N1          0.2481    0.0032   -0.0642 N.am      1 <0>        -0.5389
      3 C2          0.4210   -0.6115   -1.2538 C.2       1 <0>         0.5502
      4 O1          0.4547    0.0325   -2.2886 O.2       1 <0>        -0.5191
      5 C3          0.5629   -2.0215   -1.2736 C.2       1 <0>        -0.2874
      6 C4          0.5180   -2.7088   -0.0699 C.2       1 <0>         0.2238
      7 N2          0.3449   -2.0413    1.0663 N.2       1 <0>        -0.5772
      8 C5          0.2188   -0.7292    1.0822 C.2       1 <0>         0.6347
      9 N3          0.0481   -0.0881    2.2812 N.pl3     1 <0>        -0.6366
     10 C6         -0.0996   -0.8319    3.4576 C.ar      1 <0>         0.1376
     11 C7          0.3973   -0.3407    4.6577 C.ar      1 <0>        -0.1089
     12 C8          0.2501   -1.0761    5.8175 C.ar      1 <0>        -0.1342
     13 C9         -0.3920   -2.3025    5.7841 C.ar      1 <0>         0.0930
     14 C10        -0.8878   -2.7943    4.5883 C.ar      1 <0>        -0.1340
     15 C11        -0.7482   -2.0594    3.4273 C.ar      1 <0>        -0.0736
     16 F1         -0.5346   -3.0204    6.9196 F         1 <0>        -0.1365
     17 C12         0.7544   -2.7454   -2.5523 C.ar      1 <0>         0.0362
     18 C13         1.9111   -2.5411   -3.3044 C.ar      1 <0>        -0.0899
     19 C14         2.0872   -3.2160   -4.4944 C.ar      1 <0>        -0.0866
     20 C15         1.1149   -4.0979   -4.9449 C.ar      1 <0>         0.0385
     21 C16        -0.0396   -4.3047   -4.1986 C.ar      1 <0>         0.1005
     22 C17        -0.2189   -3.6366   -3.0033 C.ar      1 <0>        -0.1332
     23 F2         -0.9843   -5.1635   -4.6402 F         1 <0>        -0.1253
     24 O2          1.2917   -4.7606   -6.1187 O.3       1 <0>        -0.2390
     25 C18         0.7619   -4.2174   -7.2423 C.ar      1 <0>         0.1813
     26 C19        -0.0230   -3.0788   -7.1826 C.ar      1 <0>        -0.2630
     27 C20        -0.5516   -2.5449   -8.3505 C.ar      1 <0>         0.1658
     28 N4         -0.3291   -3.0905   -9.5235 N.ar      1 <0>        -0.4933
     29 C21         0.4200   -4.1914   -9.6547 C.ar      1 <0>         0.1715
     30 C22         0.9990   -4.7926   -8.5106 C.ar      1 <0>        -0.1058
     31 C23         1.7884   -5.9443   -8.6519 C.ar      1 <0>        -0.1533
     32 C24         1.9958   -6.4729   -9.8927 C.ar      1 <0>         0.1130
     33 C25         1.4279   -5.8767  -11.0283 C.ar      1 <0>         0.1510
     34 C26         0.6476   -4.7624  -10.9182 C.ar      1 <0>        -0.1794
     35 O3          1.6495   -6.4217  -12.2532 O.3       1 <0>        -0.2999
     36 C27         1.0449   -5.7701  -13.3721 C.3       1 <0>         0.0210
     37 O4          2.7610   -7.5885  -10.0297 O.3       1 <0>        -0.3018
     38 C28         3.3116   -8.1482   -8.8357 C.3       1 <0>         0.0228
     39 H1          1.0796    1.9219    0.0978 H         1 <0>         0.0859
     40 H2         -0.3736    1.8122   -0.9242 H         1 <0>         0.1074
     41 H3         -0.5231    1.7274    0.8474 H         1 <0>         0.0836
     42 H4          0.6230   -3.7836   -0.0559 H         1 <0>         0.1756
     43 H5          0.0296    0.8811    2.3146 H         1 <0>         0.4241
     44 H6          0.8987    0.6154    4.6841 H         1 <0>         0.1371
     45 H7          0.6363   -0.6944    6.7511 H         1 <0>         0.1425
     46 H8         -1.3876   -3.7514    4.5643 H         1 <0>         0.1422
     47 H9         -1.1392   -2.4412    2.4958 H         1 <0>         0.1503
     48 H10         2.6682   -1.8546   -2.9554 H         1 <0>         0.1373
     49 H11         2.9830   -3.0577   -5.0766 H         1 <0>         0.1445
     50 H12        -1.1135   -3.8006   -2.4209 H         1 <0>         0.1455
     51 H13        -0.2238   -2.6078   -6.2317 H         1 <0>         0.1391
     52 H14        -1.1630   -1.6565   -8.2920 H         1 <0>         0.1632
     53 H15         2.2298   -6.4096   -7.7830 H         1 <0>         0.1488
     54 H16         0.2166   -4.3137  -11.8010 H         1 <0>         0.1541
     55 H17         1.3007   -6.3057  -14.2863 H         1 <0>         0.1055
     56 H18        -0.0378   -5.7622  -13.2465 H         1 <0>         0.0607
     57 H19         1.4106   -4.7453  -13.4370 H         1 <0>         0.0605
     58 H20         3.9521   -7.4115   -8.3509 H         1 <0>         0.0578
     59 H21         2.5037   -8.4284   -8.1597 H         1 <0>         0.0582
     60 H22         3.8989   -9.0317   -9.0859 H         1 <0>         0.1047
@<TRIPOS>BOND
     1    1    2 1
     2    1   39 1
     3    1   40 1
     4    1   41 1
     5    2    8 1
     6    2    3 am
     7    3    4 2
     8    3    5 1
     9    5    6 2
    10    5   17 1
    11    6    7 1
    12    6   42 1
    13    7    8 2
    14    8    9 1
    15    9   10 1
    16    9   43 1
    17   10   15 ar
    18   10   11 ar
    19   11   12 ar
    20   11   44 1
    21   12   13 ar
    22   12   45 1
    23   13   14 ar
    24   13   16 1
    25   14   15 ar
    26   14   46 1
    27   15   47 1
    28   17   22 ar
    29   17   18 ar
    30   18   19 ar
    31   18   48 1
    32   19   20 ar
    33   19   49 1
    34   20   21 ar
    35   20   24 1
    36   21   22 ar
    37   21   23 1
    38   22   50 1
    39   24   25 1
    40   25   30 ar
    41   25   26 ar
    42   26   27 ar
    43   26   51 1
    44   27   28 ar
    45   27   52 1
    46   28   29 ar
    47   29   34 ar
    48   29   30 ar
    49   30   31 ar
    50   31   32 ar
    51   31   53 1
    52   32   33 ar
    53   32   37 1
    54   33   34 ar
    55   33   35 1
    56   34   54 1
    57   35   36 1
    58   36   55 1
    59   36   56 1
    60   36   57 1
    61   37   38 1
    62   38   58 1
    63   38   59 1
    64   38   60 1
@<TRIPOS>MOLECULE
CHEMBL254085
   68    72     0     0     0
SMALL
USER_CHARGES

@<TRIPOS>ATOM
      1 C1          1.3936   -2.4284    0.2364 C.ar      1 <0>        -0.0725
      2 C2          2.7060   -2.8372    0.3793 C.ar      1 <0>        -0.1519
      3 C3          2.9882   -4.1447    0.7371 C.ar      1 <0>         0.1071
      4 C4          1.9548   -5.0411    0.9514 C.ar      1 <0>        -0.1517
      5 C5          0.6433   -4.6299    0.8079 C.ar      1 <0>        -0.0725
      6 C6          0.3627   -3.3242    0.4507 C.ar      1 <0>        -0.0943
      7 C7         -1.0679   -2.8771    0.2946 C.3       1 <0>        -0.0931
      8 C8         -1.5101   -3.0961   -1.1294 C.2       1 <0>         0.5147
      9 O1         -0.7397   -3.5685   -1.9375 O.2       1 <0>        -0.4455
     10 N1         -2.7621   -2.7667   -1.5044 N.am      1 <0>        -0.6885
     11 C9         -3.1575   -2.9625   -2.7779 C.2       1 <0>         0.6944
     12 O2         -2.3852   -3.4361   -3.5881 O.2       1 <0>        -0.5024
     13 N2         -4.4095   -2.6332   -3.1529 N.am      1 <0>        -0.6799
     14 C10        -4.7944   -2.7573   -4.4942 C.ar      1 <0>         0.2093
     15 C11        -5.6712   -1.8368   -5.0530 C.ar      1 <0>        -0.1423
     16 C12        -6.0510   -1.9587   -6.3752 C.ar      1 <0>        -0.0632
     17 C13        -5.5570   -3.0003   -7.1462 C.ar      1 <0>         0.0239
     18 C14        -4.6793   -3.9217   -6.5888 C.ar      1 <0>         0.1383
     19 C15        -4.2948   -3.7971   -5.2665 C.ar      1 <0>        -0.1441
     20 F1         -4.1981   -4.9364   -7.3398 F         1 <0>        -0.1210
     21 O3         -5.9323   -3.1199   -8.4479 O.3       1 <0>        -0.2214
     22 C16        -5.0511   -2.7370   -9.4009 C.2       1 <0>         0.4533
     23 C17        -5.3443   -2.9387  -10.7672 C.2       1 <0>        -0.0873
     24 C18        -6.4167   -3.4859  -11.4455 C.2       1 <0>        -0.0725
     25 C19        -6.1196   -3.4021  -12.8063 C.2       1 <0>        -0.1594
     26 C20        -4.8984   -2.8185  -12.9330 C.2       1 <0>         0.0706
     27 N3         -4.4173   -2.5327  -11.7090 N.pl3     1 <0>        -0.2366
     28 N4         -3.2291   -1.9397  -11.2593 N.2       1 <0>        -0.3232
     29 C21        -3.0214   -1.7834   -9.9810 C.2       1 <0>         0.3280
     30 N5         -3.9091   -2.1651   -9.0639 N.2       1 <0>        -0.5942
     31 C22        -7.6670   -4.0628  -10.8330 C.3       1 <0>         0.1251
     32 N6         -8.5813   -2.9726  -10.4678 N.3       1 <0>        -0.5274
     33 C23        -8.0117   -2.1443   -9.3973 C.3       1 <0>         0.0475
     34 C24        -8.9207   -0.9394   -9.1444 C.3       1 <0>        -0.1408
     35 C25       -10.3147   -1.4325   -8.7467 C.3       1 <0>         0.0350
     36 H1        -10.2495   -1.9990   -7.8178 H         1 <0>         0.1465
     37 C26       -10.8653   -2.3317   -9.8570 C.3       1 <0>         0.0920
     38 H2        -10.9671   -1.7545  -10.7760 H         1 <0>         0.0921
     39 C27        -9.9000   -3.4963  -10.0893 C.3       1 <0>         0.0229
     40 O4        -12.1432   -2.8404   -9.4692 O.3       1 <0>        -0.5733
     41 N7        -11.2073   -0.2811   -8.5579 N.4       1 <0>        -0.6325
     42 F2          4.2707   -4.5456    0.8766 F         1 <0>        -0.1363
     43 H3          1.1732   -1.4074   -0.0383 H         1 <0>         0.1319
     44 H4          3.5112   -2.1373    0.2115 H         1 <0>         0.1386
     45 H5          2.1738   -6.0612    1.2302 H         1 <0>         0.1386
     46 H6         -0.1629   -5.3290    0.9747 H         1 <0>         0.1321
     47 H7         -1.7042   -3.4543    0.9655 H         1 <0>         0.1150
     48 H8         -1.1466   -1.8182    0.5407 H         1 <0>         0.1149
     49 H9         -3.3785   -2.3888   -0.8578 H         1 <0>         0.4139
     50 H10        -5.0440   -2.3103   -2.4941 H         1 <0>         0.4160
     51 H11        -6.0567   -1.0256   -4.4532 H         1 <0>         0.1456
     52 H12        -6.7333   -1.2426   -6.8089 H         1 <0>         0.1396
     53 H13        -3.6096   -4.5109   -4.8335 H         1 <0>         0.1637
     54 H14        -6.7487   -3.7412  -13.6160 H         1 <0>         0.1660
     55 H15        -4.3948   -2.6160  -13.8667 H         1 <0>         0.1868
     56 H16        -2.0997   -1.3245   -9.6550 H         1 <0>         0.2269
     57 H17        -8.1544   -4.7200  -11.5531 H         1 <0>         0.0997
     58 H18        -7.4053   -4.6318   -9.9409 H         1 <0>         0.0582
     59 H19        -7.9300   -2.7355   -8.4852 H         1 <0>         0.0648
     60 H20        -7.0223   -1.7968   -9.6946 H         1 <0>         0.0956
     61 H21        -8.5057   -0.3332   -8.3391 H         1 <0>         0.0985
     62 H22        -8.9918   -0.3403  -10.0521 H         1 <0>         0.0997
     63 H23       -10.2821   -4.1307  -10.8891 H         1 <0>         0.1018
     64 H24        -9.8095   -4.0811   -9.1739 H         1 <0>         0.0577
     65 H25       -12.5521   -3.4195  -10.1269 H         1 <0>         0.4105
     66 H26       -11.2687    0.2416   -9.4188 H         1 <0>         0.4333
     67 H27       -12.1256   -0.6068   -8.2959 H         1 <0>         0.4428
     68 H28       -10.8405    0.3128   -7.8293 H         1 <0>         0.4353
@<TRIPOS>BOND
     1    1    6 ar
     2    1    2 ar
     3    1   43 1
     4    2    3 ar
     5    2   44 1
     6    3    4 ar
     7    3   42 1
     8    4    5 ar
     9    4   45 1
    10    5    6 ar
    11    5   46 1
    12    6    7 1
    13    7    8 1
    14    7   47 1
    15    7   48 1
    16    8    9 2
    17    8   10 am
    18   10   11 am
    19   10   49 1
    20   11   12 2
    21   11   13 am
    22   13   14 1
    23   13   50 1
    24   14   19 ar
    25   14   15 ar
    26   15   16 ar
    27   15   51 1
    28   16   17 ar
    29   16   52 1
    30   17   18 ar
    31   17   21 1
    32   18   19 ar
    33   18   20 1
    34   19   53 1
    35   21   22 1
    36   22   30 2
    37   22   23 1
    38   23   27 1
    39   23   24 2
    40   24   25 1
    41   24   31 1
    42   25   26 2
    43   25   54 1
    44   26   27 1
    45   26   55 1
    46   27   28 1
    47   28   29 2
    48   29   30 1
    49   29   56 1
    50   31   32 1
    51   31   57 1
    52   31   58 1
    53   32   39 1
    54   32   33 1
    55   33   34 1
    56   33   59 1
    57   33   60 1
    58   34   35 1
    59   34   61 1
    60   34   62 1
    61   35   36 1
    62   35   37 1
    63   35   41 1
    64   37   38 1
    65   37   39 1
    66   37   40 1
    67   39   63 1
    68   39   64 1
    69   40   65 1
    70   41   66 1
    71   41   67 1
    72   41   68 1
@<TRIPOS>MOLECULE
CHEMBL585205
   65    69     0     0     0
SMALL
USER_CHARGES

@<TRIPOS>ATOM
      1 C1          3.1133    0.2147   -0.6725 C.3       1 <0>        -0.1721
      2 C2          1.6333    0.6026   -0.6629 C.3       1 <0>         0.0979
      3 N1          0.8409   -0.4800   -1.2513 N.pl3     1 <0>        -0.4546
      4 C3          0.5220   -0.6223   -2.5721 C.2       1 <0>        -0.0141
      5 C4         -0.2199   -1.7589   -2.6743 C.2       1 <0>         0.0623
      6 N2         -0.3392   -2.2822   -1.4357 N.2       1 <0>        -0.4698
      7 C5          0.2966   -1.5239   -0.5878 C.2       1 <0>         0.1972
      8 C6         -0.7920   -2.3189   -3.9173 C.2       1 <0>        -0.0120
      9 C7         -1.5407   -3.4409   -4.0741 C.2       1 <0>        -0.1344
     10 C8         -1.9966   -3.8090   -5.3538 C.ar      1 <0>         0.1646
     11 C9         -1.6181   -2.9418   -6.4019 C.ar      1 <0>        -0.2091
     12 S1         -0.6758   -1.6829   -5.5807 S.3       1 <0>         0.1014
     13 C10        -1.9926   -3.1740   -7.7122 C.ar      1 <0>         0.2115
     14 C11        -2.7655   -4.3028   -7.9803 C.ar      1 <0>        -0.2387
     15 C12        -3.1151   -5.1272   -6.9245 C.ar      1 <0>         0.1595
     16 N3         -2.7462   -4.8832   -5.6923 N.ar      1 <0>        -0.4777
     17 O1         -1.6196   -2.3289   -8.7070 O.3       1 <0>        -0.2371
     18 C13        -1.9376   -2.6674   -9.9852 C.ar      1 <0>         0.0217
     19 C14        -1.0098   -3.3243  -10.7796 C.ar      1 <0>        -0.0655
     20 C15        -1.3318   -3.6685  -12.0778 C.ar      1 <0>        -0.1431
     21 C16        -2.5847   -3.3568  -12.5889 C.ar      1 <0>         0.1917
     22 C17        -3.5144   -2.6992  -11.7946 C.ar      1 <0>        -0.1501
     23 C18        -3.1938   -2.3602  -10.4931 C.ar      1 <0>         0.1226
     24 F1         -4.0995   -1.7253   -9.7174 F         1 <0>        -0.1203
     25 N4         -2.9105   -3.7053  -13.9061 N.am      1 <0>        -0.6769
     26 C19        -4.1745   -4.0538  -14.2179 C.2       1 <0>         0.5112
     27 O2         -5.0091   -4.1545  -13.3436 O.2       1 <0>        -0.4627
     28 C20        -4.5509   -4.3184  -15.6530 C.3       1 <0>        -0.1648
     29 C21        -6.0101   -4.6869  -15.7298 C.2       1 <0>         0.5115
     30 O3         -6.6787   -4.7303  -14.7188 O.2       1 <0>        -0.4912
     31 N5         -6.5723   -4.9681  -16.9220 N.am      1 <0>        -0.7302
     32 C22        -7.9909   -5.3263  -16.9967 C.3       1 <0>         0.1465
     33 C23        -8.1533   -6.8244  -16.7319 C.3       1 <0>        -0.1290
     34 C24        -9.6348   -7.1985  -16.8099 C.3       1 <0>        -0.1185
     35 C25       -10.1721   -6.8656  -18.2033 C.3       1 <0>        -0.1225
     36 C26       -10.0097   -5.3675  -18.4681 C.3       1 <0>        -0.1172
     37 C27        -8.5282   -4.9934  -18.3900 C.3       1 <0>        -0.1256
     38 H1          3.2539   -0.6962   -0.0906 H         1 <0>         0.0658
     39 H2          3.4375    0.0437   -1.6991 H         1 <0>         0.0646
     40 H3          3.7029    1.0202   -0.2347 H         1 <0>         0.0803
     41 H4          1.3092    0.7736    0.3636 H         1 <0>         0.0997
     42 H5          1.4927    1.5135   -1.2449 H         1 <0>         0.0959
     43 H6          0.8035    0.0389   -3.3784 H         1 <0>         0.1811
     44 H7          0.3738   -1.7000    0.4750 H         1 <0>         0.2124
     45 H8         -1.7860   -4.0507   -3.2171 H         1 <0>         0.1543
     46 H9         -3.0841   -4.5285   -8.9872 H         1 <0>         0.1471
     47 H10        -3.7138   -6.0035   -7.1247 H         1 <0>         0.1667
     48 H11        -0.0349   -3.5665  -10.3831 H         1 <0>         0.1496
     49 H12        -0.6087   -4.1800  -12.6958 H         1 <0>         0.1454
     50 H13        -4.4888   -2.4562  -12.1918 H         1 <0>         0.1570
     51 H14        -2.2263   -3.6958  -14.5936 H         1 <0>         0.4162
     52 H15        -4.3706   -3.4225  -16.2470 H         1 <0>         0.1283
     53 H16        -3.9480   -5.1393  -16.0413 H         1 <0>         0.1275
     54 H17        -6.0376   -4.9334  -17.7306 H         1 <0>         0.3986
     55 H18        -8.5478   -4.7626  -16.2483 H         1 <0>         0.0888
     56 H19        -7.5963   -7.3881  -17.4804 H         1 <0>         0.0631
     57 H20        -7.7704   -7.0615  -15.7393 H         1 <0>         0.0674
     58 H21        -9.7505   -8.2658  -16.6213 H         1 <0>         0.0656
     59 H22       -10.1917   -6.6348  -16.0615 H         1 <0>         0.0650
     60 H23        -9.6152   -7.4293  -18.9517 H         1 <0>         0.0626
     61 H24       -11.2276   -7.1321  -18.2589 H         1 <0>         0.0647
     62 H25       -10.3926   -5.1304  -19.4607 H         1 <0>         0.0679
     63 H26       -10.5667   -4.8038  -17.7196 H         1 <0>         0.0657
     64 H27        -8.4125   -3.9261  -18.5787 H         1 <0>         0.0686
     65 H28        -7.9713   -5.5572  -19.1385 H         1 <0>         0.0681
@<TRIPOS>BOND
     1    1    2 1
     2    1   38 1
     3    1   39 1
     4    1   40 1
     5    2    3 1
     6    2   41 1
     7    2   42 1
     8    3    7 1
     9    3    4 1
    10    4    5 2
    11    4   43 1
    12    5    6 1
    13    5    8 1
    14    6    7 2
    15    7   44 1
    16    8   12 1
    17    8    9 2
    18    9   10 1
    19    9   45 1
    20   10   16 ar
    21   10   11 ar
    22   11   12 1
    23   11   13 ar
    24   13   14 ar
    25   13   17 1
    26   14   15 ar
    27   14   46 1
    28   15   16 ar
    29   15   47 1
    30   17   18 1
    31   18   23 ar
    32   18   19 ar
    33   19   20 ar
    34   19   48 1
    35   20   21 ar
    36   20   49 1
    37   21   22 ar
    38   21   25 1
    39   22   23 ar
    40   22   50 1
    41   23   24 1
    42   25   26 am
    43   25   51 1
    44   26   27 2
    45   26   28 1
    46   28   29 1
    47   28   52 1
    48   28   53 1
    49   29   30 2
    50   29   31 am
    51   31   32 1
    52   31   54 1
    53   32   37 1
    54   32   33 1
    55   32   55 1
    56   33   34 1
    57   33   56 1
    58   33   57 1
    59   34   35 1
    60   34   58 1
    61   34   59 1
    62   35   36 1
    63   35   60 1
    64   35   61 1
    65   36   37 1
    66   36   62 1
    67   36   63 1
    68   37   64 1
    69   37   65 1
@<TRIPOS>MOLECULE
CHEMBL585205__1
   66    70     0     0     0
SMALL
USER_CHARGES

@<TRIPOS>ATOM
      1 C1         -0.9719    0.1389    3.0374 C.3       1 <0>        -0.1811
      2 C2         -0.2467    0.5638    1.7590 C.3       1 <0>         0.0872
      3 N1          0.6758   -0.4965    1.3454 N.pl3     1 <0>        -0.4024
      4 C3          1.9812   -0.6261    1.7268 C.2       1 <0>         0.0488
      5 C4          2.4582   -1.7434    1.1128 C.2       1 <0>         0.1242
      6 N2          1.4533   -2.2679    0.3798 N.pl3     1 <0>        -0.4723
      7 C5          0.3894   -1.5288    0.5215 C.cat     1 <0>         0.3040
      8 C6          3.8292   -2.2845    1.2276 C.2       1 <0>        -0.1207
      9 C7          4.3567   -3.3868    0.6354 C.2       1 <0>        -0.0821
     10 C8          5.6985   -3.7389    0.8731 C.ar      1 <0>         0.1377
     11 C9          6.4036   -2.8778    1.7421 C.ar      1 <0>        -0.1936
     12 S1          5.2018   -1.6458    2.1727 S.3       1 <0>         0.1693
     13 C10         7.7291   -3.0960    2.0684 C.ar      1 <0>         0.2098
     14 C11         8.3651   -4.2040    1.5106 C.ar      1 <0>        -0.2124
     15 C12         7.6383   -5.0231    0.6636 C.ar      1 <0>         0.1675
     16 N3          6.3830   -4.7928    0.3719 N.ar      1 <0>        -0.4688
     17 O1          8.3911   -2.2570    2.9055 O.3       1 <0>        -0.2326
     18 C13         9.6622   -2.5829    3.2625 C.ar      1 <0>         0.0073
     19 C14         9.8969   -3.2601    4.4498 C.ar      1 <0>        -0.0619
     20 C15        11.1874   -3.5916    4.8132 C.ar      1 <0>        -0.1431
     21 C16        12.2513   -3.2467    3.9902 C.ar      1 <0>         0.2019
     22 C17        12.0177   -2.5688    2.8013 C.ar      1 <0>        -0.1502
     23 C18        10.7250   -2.2426    2.4349 C.ar      1 <0>         0.1253
     24 F1         10.4960   -1.5878    1.2756 F         1 <0>        -0.1209
     25 N4         13.5602   -3.5824    4.3597 N.am      1 <0>        -0.6780
     26 C19        14.4674   -3.8980    3.4142 C.2       1 <0>         0.5133
     27 O2         14.1288   -3.9807    2.2524 O.2       1 <0>        -0.4622
     28 C20        15.9024   -4.1480    3.8005 C.3       1 <0>        -0.1657
     29 C21        16.7039   -4.4795    2.5681 C.2       1 <0>         0.5120
     30 O3         16.1631   -4.5096    1.4830 O.2       1 <0>        -0.4938
     31 N5         18.0217   -4.7423    2.6718 N.am      1 <0>        -0.7287
     32 C22        18.8009   -5.0645    1.4737 C.3       1 <0>         0.1466
     33 C23        18.6761   -6.5590    1.1708 C.3       1 <0>        -0.1286
     34 C24        19.4898   -6.8955   -0.0804 C.3       1 <0>        -0.1184
     35 C25        20.9598   -6.5444    0.1576 C.3       1 <0>        -0.1232
     36 C26        21.0847   -5.0499    0.4606 C.3       1 <0>        -0.1173
     37 C27        20.2709   -4.7134    1.7118 C.3       1 <0>        -0.1260
     38 H1         -0.2422   -0.0366    3.8279 H         1 <0>         0.0747
     39 H2         -1.6582    0.9278    3.3451 H         1 <0>         0.1021
     40 H3         -1.5320   -0.7772    2.8500 H         1 <0>         0.0731
     41 H4         -0.9764    0.7393    0.9685 H         1 <0>         0.1254
     42 H5          0.3134    1.4799    1.9464 H         1 <0>         0.1266
     43 H6          2.5285    0.0305    2.3868 H         1 <0>         0.2267
     44 H7         -0.5669   -1.7105    0.0535 H         1 <0>         0.2670
     45 H8          3.7466   -3.9933   -0.0176 H         1 <0>         0.1496
     46 H9          9.3999   -4.4182    1.7337 H         1 <0>         0.1571
     47 H10         8.1244   -5.8834    0.2278 H         1 <0>         0.1766
     48 H11         9.0700   -3.5281    5.0908 H         1 <0>         0.1500
     49 H12        11.3692   -4.1189    5.7380 H         1 <0>         0.1485
     50 H13        12.8449   -2.3001    2.1610 H         1 <0>         0.1599
     51 H14        13.8136   -3.5877    5.2960 H         1 <0>         0.4184
     52 H15        16.3128   -3.2548    4.2715 H         1 <0>         0.1297
     53 H16        15.9502   -4.9824    4.5002 H         1 <0>         0.1288
     54 H17        18.4543   -4.7182    3.5397 H         1 <0>         0.3994
     55 H18        18.4223   -4.4896    0.6286 H         1 <0>         0.0888
     56 H19        19.0547   -7.1339    2.0160 H         1 <0>         0.0636
     57 H20        17.6288   -6.8091    1.0013 H         1 <0>         0.0664
     58 H21        19.4009   -7.9602   -0.2962 H         1 <0>         0.0659
     59 H22        19.1112   -6.3206   -0.9255 H         1 <0>         0.0647
     60 H23        21.3385   -7.1193    1.0028 H         1 <0>         0.0632
     61 H24        21.5396   -6.7841   -0.7338 H         1 <0>         0.0655
     62 H25        22.1320   -4.7998    0.6301 H         1 <0>         0.0690
     63 H26        20.7061   -4.4750   -0.3846 H         1 <0>         0.0656
     64 H27        20.3599   -3.6487    1.9276 H         1 <0>         0.0688
     65 H28        20.6496   -5.2883    2.5569 H         1 <0>         0.0687
     66 H29         1.5127   -3.0692   -0.1635 H         1 <0>         0.4655
@<TRIPOS>BOND
     1    1    2 1
     2    1   38 1
     3    1   39 1
     4    1   40 1
     5    2    3 1
     6    2   41 1
     7    2   42 1
     8    3    7 1
     9    3    4 1
    10    4    5 2
    11    4   43 1
    12    5    6 1
    13    5    8 1
    14    6    7 2
    15    6   66 1
    16    7   44 1
    17    8   12 1
    18    8    9 2
    19    9   10 1
    20    9   45 1
    21   10   16 ar
    22   10   11 ar
    23   11   12 1
    24   11   13 ar
    25   13   14 ar
    26   13   17 1
    27   14   15 ar
    28   14   46 1
    29   15   16 ar
    30   15   47 1
    31   17   18 1
    32   18   23 ar
    33   18   19 ar
    34   19   20 ar
    35   19   48 1
    36   20   21 ar
    37   20   49 1
    38   21   22 ar
    39   21   25 1
    40   22   23 ar
    41   22   50 1
    42   23   24 1
    43   25   26 am
    44   25   51 1
    45   26   27 2
    46   26   28 1
    47   28   29 1
    48   28   52 1
    49   28   53 1
    50   29   30 2
    51   29   31 am
    52   31   32 1
    53   31   54 1
    54   32   37 1
    55   32   33 1
    56   32   55 1
    57   33   34 1
    58   33   56 1
    59   33   57 1
    60   34   35 1
    61   34   58 1
    62   34   59 1
    63   35   36 1
    64   35   60 1
    65   35   61 1
    66   36   37 1
    67   36   62 1
    68   36   63 1
    69   37   64 1
    70   37   65 1
@<TRIPOS>MOLECULE
CHEMBL254086
   66    70     0     0     0
SMALL
USER_CHARGES

@<TRIPOS>ATOM
      1 C1         -6.8907    0.2469    2.3421 C.ar      1 <0>        -0.0728
      2 C2         -7.7672    1.1238    2.9526 C.ar      1 <0>        -0.1522
      3 C3         -7.5562    2.4891    2.8602 C.ar      1 <0>         0.1062
      4 C4         -6.4672    2.9742    2.1560 C.ar      1 <0>        -0.1516
      5 C5         -5.5921    2.0953    1.5464 C.ar      1 <0>        -0.0723
      6 C6         -5.8037    0.7323    1.6394 C.ar      1 <0>        -0.0930
      7 C7         -4.8487   -0.2250    0.9742 C.3       1 <0>        -0.0938
      8 C8         -5.3142   -0.5032   -0.4318 C.2       1 <0>         0.5153
      9 O1         -6.3219    0.0238   -0.8522 O.2       1 <0>        -0.4473
     10 N1         -4.6104   -1.3378   -1.2220 N.am      1 <0>        -0.6885
     11 C9         -5.0267   -1.5866   -2.4795 C.2       1 <0>         0.6955
     12 O2         -6.0370   -1.0583   -2.9009 O.2       1 <0>        -0.5055
     13 N2         -4.3229   -2.4213   -3.2697 N.am      1 <0>        -0.6789
     14 C10        -4.8098   -2.7619   -4.5384 C.ar      1 <0>         0.2081
     15 C11        -4.6043   -4.0400   -5.0409 C.ar      1 <0>        -0.1420
     16 C12        -5.0841   -4.3763   -6.2915 C.ar      1 <0>        -0.0593
     17 C13        -5.7720   -3.4382   -7.0464 C.ar      1 <0>         0.0257
     18 C14        -5.9789   -2.1592   -6.5450 C.ar      1 <0>         0.1419
     19 C15        -5.5029   -1.8235   -5.2909 C.ar      1 <0>        -0.1470
     20 F1         -6.6490   -1.2452   -7.2803 F         1 <0>        -0.1213
     21 O3         -6.2438   -3.7701   -8.2781 O.3       1 <0>        -0.2163
     22 C16        -5.4753   -3.4772   -9.3531 C.2       1 <0>         0.4634
     23 C17        -5.8675   -3.8878  -10.6411 C.2       1 <0>        -0.0719
     24 C18        -6.9636   -4.5953  -11.1389 C.2       1 <0>        -0.0551
     25 C19        -6.7809   -4.6876  -12.5331 C.2       1 <0>        -0.1719
     26 C20        -5.6217   -4.0583  -12.8426 C.2       1 <0>         0.0671
     27 N3         -5.0581   -3.5702  -11.7129 N.pl3     1 <0>        -0.2360
     28 N4         -3.8801   -2.8506  -11.4649 N.2       1 <0>        -0.3292
     29 C21        -3.5747   -2.4997  -10.2453 C.2       1 <0>         0.3323
     30 N5         -4.3509   -2.7976   -9.2055 N.2       1 <0>        -0.5974
     31 C22        -8.0900   -5.1392  -10.3592 C.2       1 <0>        -0.0522
     32 C23        -8.6818   -6.2652  -10.7435 C.2       1 <0>        -0.1458
     33 C24        -8.1087   -7.0975  -11.8692 C.3       1 <0>        -0.0909
     34 C25        -7.9767   -8.5456  -11.3858 C.3       1 <0>        -0.1377
     35 C26        -9.3304   -9.0336  -10.8671 C.3       1 <0>         0.0254
     36 C27        -9.7468   -8.2084   -9.6483 C.3       1 <0>        -0.1390
     37 C28        -9.9422   -6.7507  -10.0624 C.3       1 <0>        -0.0742
     38 N6         -9.2260  -10.4485  -10.4862 N.4       1 <0>        -0.6379
     39 F2         -8.4126    3.3474    3.4562 F         1 <0>        -0.1368
     40 H1         -7.0525   -0.8182    2.4179 H         1 <0>         0.1318
     41 H2         -8.6165    0.7443    3.5013 H         1 <0>         0.1381
     42 H3         -6.3019    4.0389    2.0830 H         1 <0>         0.1386
     43 H4         -4.7427    2.4735    0.9968 H         1 <0>         0.1324
     44 H5         -3.8523    0.2163    0.9464 H         1 <0>         0.1152
     45 H6         -4.8175   -1.1575    1.5378 H         1 <0>         0.1148
     46 H7         -3.8041   -1.7595   -0.8857 H         1 <0>         0.4142
     47 H8         -3.4791   -2.7861   -2.9600 H         1 <0>         0.4165
     48 H9         -4.0686   -4.7712   -4.4537 H         1 <0>         0.1463
     49 H10        -4.9232   -5.3703   -6.6819 H         1 <0>         0.1444
     50 H11        -5.6668   -0.8307   -4.8987 H         1 <0>         0.1640
     51 H12        -7.4463   -5.1740  -13.2309 H         1 <0>         0.1665
     52 H13        -5.2108   -3.9614  -13.8367 H         1 <0>         0.1866
     53 H14        -2.6633   -1.9460  -10.0744 H         1 <0>         0.2279
     54 H15        -8.4344   -4.6225   -9.4756 H         1 <0>         0.1290
     55 H16        -8.7763   -7.0583  -12.7300 H         1 <0>         0.0843
     56 H17        -7.1271   -6.7129  -12.1458 H         1 <0>         0.1059
     57 H18        -7.6555   -9.1774  -12.2139 H         1 <0>         0.0891
     58 H19        -7.2405   -8.5953  -10.5835 H         1 <0>         0.0874
     59 H20       -10.0795   -8.9248  -11.6513 H         1 <0>         0.1423
     60 H21       -10.6801   -8.6013   -9.2449 H         1 <0>         0.0895
     61 H22        -8.9687   -8.2662   -8.8871 H         1 <0>         0.0889
     62 H23       -10.1380   -6.1433   -9.1787 H         1 <0>         0.0917
     63 H24       -10.7824   -6.6788  -10.7530 H         1 <0>         0.0873
     64 H25        -8.5308  -10.5516   -9.7622 H         1 <0>         0.4326
     65 H26       -10.1186  -10.7714  -10.1439 H         1 <0>         0.4356
     66 H27        -8.9570  -10.9945  -11.2910 H         1 <0>         0.4357
@<TRIPOS>BOND
     1    1    6 ar
     2    1    2 ar
     3    1   40 1
     4    2    3 ar
     5    2   41 1
     6    3    4 ar
     7    3   39 1
     8    4    5 ar
     9    4   42 1
    10    5    6 ar
    11    5   43 1
    12    6    7 1
    13    7    8 1
    14    7   44 1
    15    7   45 1
    16    8    9 2
    17    8   10 am
    18   10   11 am
    19   10   46 1
    20   11   12 2
    21   11   13 am
    22   13   14 1
    23   13   47 1
    24   14   19 ar
    25   14   15 ar
    26   15   16 ar
    27   15   48 1
    28   16   17 ar
    29   16   49 1
    30   17   18 ar
    31   17   21 1
    32   18   19 ar
    33   18   20 1
    34   19   50 1
    35   21   22 1
    36   22   30 2
    37   22   23 1
    38   23   27 1
    39   23   24 2
    40   24   25 1
    41   24   31 1
    42   25   26 2
    43   25   51 1
    44   26   27 1
    45   26   52 1
    46   27   28 1
    47   28   29 2
    48   29   30 1
    49   29   53 1
    50   31   32 2
    51   31   54 1
    52   32   37 1
    53   32   33 1
    54   33   34 1
    55   33   55 1
    56   33   56 1
    57   34   35 1
    58   34   57 1
    59   34   58 1
    60   35   36 1
    61   35   38 1
    62   35   59 1
    63   36   37 1
    64   36   60 1
    65   36   61 1
    66   37   62 1
    67   37   63 1
    68   38   64 1
    69   38   65 1
    70   38   66 1
@<TRIPOS>MOLECULE
CHEMBL601719
   54    57     0     0     0
SMALL
USER_CHARGES

@<TRIPOS>ATOM
      1 C1         -0.2903    1.2647   -0.1961 C.3       1 <0>        -0.1867
      2 C2         -0.0343   -0.2363   -0.0464 C.3       1 <0>         0.1262
      3 H1         -0.9865   -0.7653   -0.0082 H         1 <0>         0.1026
      4 C3          0.7673   -0.7291   -1.2235 C.ar      1 <0>        -0.0646
      5 C4          2.1198   -0.4490   -1.3055 C.ar      1 <0>        -0.0175
      6 C5          2.8563   -0.9010   -2.3857 C.ar      1 <0>        -0.0698
      7 C6          2.2419   -1.6334   -3.3842 C.ar      1 <0>        -0.1111
      8 C7          0.8892   -1.9148   -3.3034 C.ar      1 <0>         0.1277
      9 C8          0.1523   -1.4660   -2.2188 C.ar      1 <0>        -0.0563
     10 Cl1        -1.5431   -1.8239   -2.1129 Cl        1 <0>        -0.0263
     11 F1          0.2883   -2.6302   -4.2793 F         1 <0>        -0.1091
     12 Cl2         2.8928    0.4707   -0.0524 Cl        1 <0>        -0.0323
     13 O1          0.6932   -0.4774    1.1597 O.3       1 <0>        -0.2750
     14 C9         -0.0316   -0.5997    2.3041 C.ar      1 <0>         0.0920
     15 C10        -1.3990   -0.3784    2.2956 C.ar      1 <0>        -0.0838
     16 C11        -2.1018   -0.5166    3.4970 C.ar      1 <0>         0.0161
     17 C12        -1.4088   -0.8687    4.6503 C.ar      1 <0>         0.0783
     18 N1         -0.1058   -1.0710    4.6198 N.ar      1 <0>        -0.4651
     19 C13         0.5918   -0.9554    3.5015 C.ar      1 <0>         0.4320
     20 N2          1.9653   -1.1858    3.5203 N.pl3     1 <0>        -0.8070
     21 C14        -3.5689   -0.2898    3.5406 C.2       1 <0>        -0.2043
     22 C15        -4.3889    0.0635    2.4516 C.2       1 <0>         0.0864
     23 N3         -5.6168    0.1716    2.8859 N.2       1 <0>        -0.2629
     24 N4         -5.6292   -0.1060    4.2582 N.pl3     1 <0>        -0.3633
     25 C16        -4.3677   -0.3915    4.6416 C.2       1 <0>         0.0839
     26 C17        -6.8091   -0.0940    5.1265 C.3       1 <0>         0.1502
     27 C18        -6.4149    0.4064    6.5191 C.3       1 <0>        -0.1620
     28 C19        -7.6335    0.3412    7.4423 C.3       1 <0>        -0.0016
     29 N5         -8.1082   -1.0447    7.5349 N.4       1 <0>        -0.5088
     30 C20        -8.5552   -1.5072    6.2155 C.3       1 <0>        -0.0035
     31 C21        -7.3721   -1.5132    5.2451 C.3       1 <0>        -0.1624
     32 H2          0.6620    1.7936   -0.2343 H         1 <0>         0.0877
     33 H3         -0.8452    1.4486   -1.1161 H         1 <0>         0.0940
     34 H4         -0.8700    1.6211    0.6553 H         1 <0>         0.0747
     35 H5          3.9118   -0.6813   -2.4492 H         1 <0>         0.1611
     36 H6          2.8174   -1.9857   -4.2274 H         1 <0>         0.1666
     37 H7         -1.9098   -0.1057    1.3840 H         1 <0>         0.1754
     38 H8         -1.9440   -0.9774    5.5820 H         1 <0>         0.2000
     39 H9          2.4829   -1.0988    2.7046 H         1 <0>         0.4444
     40 H10         2.4043   -1.4333    4.3491 H         1 <0>         0.4248
     41 H11        -4.0602    0.2186    1.4346 H         1 <0>         0.1959
     42 H12        -4.0478   -0.6510    5.6399 H         1 <0>         0.1825
     43 H13        -7.5671    0.5645    4.7023 H         1 <0>         0.1289
     44 H14        -5.6203   -0.2226    6.9204 H         1 <0>         0.0977
     45 H15        -6.0651    1.4364    6.4503 H         1 <0>         0.1268
     46 H16        -7.3564    0.6969    8.4347 H         1 <0>         0.1473
     47 H17        -8.4275    0.9706    7.0403 H         1 <0>         0.1409
     48 H18        -7.3577   -1.6351    7.8607 H         1 <0>         0.4289
     49 H19        -8.9585   -2.5161    6.3022 H         1 <0>         0.1461
     50 H20        -9.3295   -0.8384    5.8396 H         1 <0>         0.1403
     51 H21        -7.7064   -1.8552    4.2657 H         1 <0>         0.1256
     52 H22        -6.5973   -2.1820    5.6200 H         1 <0>         0.0961
     53 H23        -8.8779   -1.0927    8.1855 H         1 <0>         0.4414
     54 H24         0.3530   -1.3151    5.4389 H         1 <0>         0.4508
@<TRIPOS>BOND
     1    1    2 1
     2    1   32 1
     3    1   33 1
     4    1   34 1
     5    2    3 1
     6    2    4 1
     7    2   13 1
     8    4    9 ar
     9    4    5 ar
    10    5    6 ar
    11    5   12 1
    12    6    7 ar
    13    6   35 1
    14    7    8 ar
    15    7   36 1
    16    8    9 ar
    17    8   11 1
    18    9   10 1
    19   13   14 1
    20   14   19 ar
    21   14   15 ar
    22   15   16 ar
    23   15   37 1
    24   16   17 ar
    25   16   21 1
    26   17   18 ar
    27   17   38 1
    28   18   19 ar
    29   18   54 1
    30   19   20 1
    31   20   39 1
    32   20   40 1
    33   21   25 2
    34   21   22 1
    35   22   23 2
    36   22   41 1
    37   23   24 1
    38   24   25 1
    39   24   26 1
    40   25   42 1
    41   26   31 1
    42   26   27 1
    43   26   43 1
    44   27   28 1
    45   27   44 1
    46   27   45 1
    47   28   29 1
    48   28   46 1
    49   28   47 1
    50   29   30 1
    51   29   48 1
    52   29   53 1
    53   30   31 1
    54   30   49 1
    55   30   50 1
    56   31   51 1
    57   31   52 1
@<TRIPOS>MOLECULE
CHEMBL601719__1
   53    56     0     0     0
SMALL
USER_CHARGES

@<TRIPOS>ATOM
      1 C1         -0.2903    1.2647   -0.1961 C.3       1 <0>        -0.1799
      2 C2         -0.0343   -0.2363   -0.0464 C.3       1 <0>         0.1239
      3 H1         -0.9865   -0.7653   -0.0082 H         1 <0>         0.0938
      4 C3          0.7673   -0.7291   -1.2235 C.ar      1 <0>        -0.0507
      5 C4          2.1198   -0.4490   -1.3055 C.ar      1 <0>        -0.0167
      6 C5          2.8563   -0.9010   -2.3857 C.ar      1 <0>        -0.0751
      7 C6          2.2419   -1.6334   -3.3842 C.ar      1 <0>        -0.1207
      8 C7          0.8892   -1.9148   -3.3034 C.ar      1 <0>         0.1195
      9 C8          0.1523   -1.4660   -2.2188 C.ar      1 <0>        -0.0573
     10 Cl1        -1.5431   -1.8239   -2.1129 Cl        1 <0>        -0.0307
     11 F1          0.2883   -2.6302   -4.2793 F         1 <0>        -0.1158
     12 Cl2         2.8928    0.4707   -0.0524 Cl        1 <0>        -0.0261
     13 O1          0.6932   -0.4774    1.1597 O.3       1 <0>        -0.2902
     14 C9         -0.0316   -0.5997    2.3041 C.ar      1 <0>         0.0297
     15 C10        -1.3990   -0.3784    2.2956 C.ar      1 <0>        -0.1217
     16 C11        -2.1018   -0.5166    3.4970 C.ar      1 <0>        -0.0861
     17 C12        -1.4088   -0.8687    4.6503 C.ar      1 <0>         0.1182
     18 N1         -0.1058   -1.0710    4.6198 N.ar      1 <0>        -0.5097
     19 C13         0.5918   -0.9554    3.5015 C.ar      1 <0>         0.3992
     20 N2          1.9653   -1.1858    3.5203 N.pl3     1 <0>        -0.8415
     21 C14        -3.5689   -0.2898    3.5406 C.2       1 <0>        -0.1558
     22 C15        -4.3889    0.0635    2.4516 C.2       1 <0>         0.0712
     23 N3         -5.6168    0.1716    2.8859 N.2       1 <0>        -0.2816
     24 N4         -5.6292   -0.1060    4.2582 N.pl3     1 <0>        -0.3794
     25 C16        -4.3677   -0.3915    4.6416 C.2       1 <0>         0.0496
     26 C17        -6.8091   -0.0940    5.1265 C.3       1 <0>         0.1592
     27 C18        -6.4149    0.4064    6.5191 C.3       1 <0>        -0.1634
     28 C19        -7.6335    0.3412    7.4423 C.3       1 <0>        -0.0001
     29 N5         -8.1082   -1.0447    7.5349 N.4       1 <0>        -0.5082
     30 C20        -8.5552   -1.5072    6.2155 C.3       1 <0>        -0.0018
     31 C21        -7.3721   -1.5132    5.2451 C.3       1 <0>        -0.1642
     32 H2          0.6620    1.7936   -0.2343 H         1 <0>         0.0790
     33 H3         -0.8452    1.4486   -1.1161 H         1 <0>         0.0782
     34 H4         -0.8700    1.6211    0.6553 H         1 <0>         0.0738
     35 H5          3.9118   -0.6813   -2.4492 H         1 <0>         0.1565
     36 H6          2.8174   -1.9857   -4.2274 H         1 <0>         0.1608
     37 H7         -1.9098   -0.1057    1.3840 H         1 <0>         0.1391
     38 H8         -1.9440   -0.9774    5.5820 H         1 <0>         0.1503
     39 H9          2.4829   -1.0988    2.7046 H         1 <0>         0.4140
     40 H10         2.4043   -1.4333    4.3491 H         1 <0>         0.4065
     41 H11        -4.0602    0.2186    1.4346 H         1 <0>         0.1874
     42 H12        -4.0478   -0.6510    5.6399 H         1 <0>         0.1760
     43 H13        -7.5671    0.5645    4.7023 H         1 <0>         0.1198
     44 H14        -5.6203   -0.2226    6.9204 H         1 <0>         0.0999
     45 H15        -6.0651    1.4364    6.4503 H         1 <0>         0.1251
     46 H16        -7.3564    0.6969    8.4347 H         1 <0>         0.1441
     47 H17        -8.4275    0.9706    7.0403 H         1 <0>         0.1374
     48 H18        -7.3577   -1.6351    7.8607 H         1 <0>         0.4299
     49 H19        -8.9585   -2.5161    6.3022 H         1 <0>         0.1420
     50 H20        -9.3295   -0.8384    5.8396 H         1 <0>         0.1369
     51 H21        -7.7064   -1.8552    4.2657 H         1 <0>         0.1225
     52 H22        -6.5973   -2.1820    5.6200 H         1 <0>         0.0966
     53 H23        -8.8779   -1.0927    8.1855 H         1 <0>         0.4370
@<TRIPOS>BOND
     1    1    2 1
     2    1   32 1
     3    1   33 1
     4    1   34 1
     5    2    3 1
     6    2    4 1
     7    2   13 1
     8    4    9 ar
     9    4    5 ar
    10    5    6 ar
    11    5   12 1
    12    6    7 ar
    13    6   35 1
    14    7    8 ar
    15    7   36 1
    16    8    9 ar
    17    8   11 1
    18    9   10 1
    19   13   14 1
    20   14   19 ar
    21   14   15 ar
    22   15   16 ar
    23   15   37 1
    24   16   17 ar
    25   16   21 1
    26   17   18 ar
    27   17   38 1
    28   18   19 ar
    29   19   20 1
    30   20   39 1
    31   20   40 1
    32   21   25 2
    33   21   22 1
    34   22   23 2
    35   22   41 1
    36   23   24 1
    37   24   25 1
    38   24   26 1
    39   25   42 1
    40   26   31 1
    41   26   27 1
    42   26   43 1
    43   27   28 1
    44   27   44 1
    45   27   45 1
    46   28   29 1
    47   28   46 1
    48   28   47 1
    49   29   30 1
    50   29   48 1
    51   29   53 1
    52   30   31 1
    53   30   49 1
    54   30   50 1
    55   31   51 1
    56   31   52 1
@<TRIPOS>MOLECULE
CHEMBL568138
   46    50     0     0     0
SMALL
USER_CHARGES

@<TRIPOS>ATOM
      1 C1         -0.0173    1.4248    0.0099 C.3       1 <0>         0.0211
      2 O1          0.0021   -0.0041    0.0020 O.3       1 <0>        -0.3059
      3 C2         -1.1999   -0.6373    0.0101 C.ar      1 <0>         0.1016
      4 C3         -1.2569   -2.0163    0.0090 C.ar      1 <0>        -0.1087
      5 C4         -2.5241   -2.6278    0.0181 C.ar      1 <0>         0.1624
      6 C5         -3.6763   -1.8065    0.0278 C.ar      1 <0>         0.0009
      7 C6         -4.9509   -2.4259    0.0369 C.ar      1 <0>         0.3021
      8 C7         -5.0014   -3.8099    0.0358 C.ar      1 <0>        -0.2840
      9 C8         -3.8223   -4.5431    0.0259 C.ar      1 <0>         0.1942
     10 N1         -2.6464   -3.9594    0.0171 N.ar      1 <0>        -0.5197
     11 N2         -6.1132   -1.6686    0.0471 N.pl3     1 <0>        -0.7079
     12 C9         -7.4195   -2.3317    0.0564 C.3       1 <0>         0.2130
     13 C10        -8.5105   -1.2922    0.0665 C.2       1 <0>         0.1825
     14 N3         -9.0579   -0.7564    1.1290 N.2       1 <0>        -0.2270
     15 N4         -9.9582    0.0966    0.7837 N.2       1 <0>        -0.2409
     16 C11       -10.0293    0.1466   -0.5364 C.2       1 <0>         0.1436
     17 N5         -9.0963   -0.7406   -1.0188 N.pl3     1 <0>        -0.2864
     18 N6         -8.9329   -0.9051   -2.3957 N.2       1 <0>        -0.2419
     19 C12        -9.6646   -0.2136   -3.2411 C.2       1 <0>         0.2169
     20 C13       -10.6277    0.7074   -2.7772 C.2       1 <0>        -0.1542
     21 C14       -10.8156    0.8830   -1.4425 C.2       1 <0>         0.0080
     22 C15        -9.4751   -0.4035   -4.7004 C.ar      1 <0>         0.0002
     23 C16       -10.2410    0.3283   -5.6054 C.ar      1 <0>        -0.1301
     24 C17       -10.0607    0.1485   -6.9643 C.ar      1 <0>         0.1364
     25 C18        -9.1204   -0.7575   -7.4264 C.ar      1 <0>        -0.1661
     26 C19        -8.3568   -1.4871   -6.5303 C.ar      1 <0>         0.1351
     27 C20        -8.5267   -1.3099   -5.1697 C.ar      1 <0>        -0.1195
     28 F1         -7.4411   -2.3694   -6.9864 F         1 <0>        -0.1208
     29 F2        -10.8031    0.8572   -7.8429 F         1 <0>        -0.1206
     30 N7         -3.5581   -0.4784    0.0280 N.ar      1 <0>        -0.4248
     31 C21        -2.3850    0.1054    0.0254 C.ar      1 <0>         0.0466
     32 H1          1.0053    1.8021    0.0021 H         1 <0>         0.1073
     33 H2         -0.5445    1.7859   -0.8732 H         1 <0>         0.0597
     34 H3         -0.5275    1.7763    0.9067 H         1 <0>         0.0604
     35 H4         -0.3543   -2.6093    0.0011 H         1 <0>         0.1555
     36 H5         -5.9548   -4.3172    0.0429 H         1 <0>         0.1409
     37 H6         -3.8739   -5.6219    0.0251 H         1 <0>         0.1642
     38 H7         -6.0610   -0.7000    0.0482 H         1 <0>         0.4151
     39 H8         -7.5179   -2.9530   -0.8337 H         1 <0>         0.0967
     40 H9         -7.5039   -2.9556    0.9462 H         1 <0>         0.1113
     41 H10       -11.2209    1.2690   -3.4837 H         1 <0>         0.1693
     42 H11       -11.5502    1.5877   -1.0818 H         1 <0>         0.1784
     43 H12       -10.9746    1.0347   -5.2460 H         1 <0>         0.1557
     44 H13        -8.9825   -0.8957   -8.4886 H         1 <0>         0.1585
     45 H14        -7.9280   -1.8761   -4.4716 H         1 <0>         0.1556
     46 H15        -2.3320    1.1841    0.0303 H         1 <0>         0.1651
@<TRIPOS>BOND
     1    1    2 1
     2    1   32 1
     3    1   33 1
     4    1   34 1
     5    2    3 1
     6    3   31 ar
     7    3    4 ar
     8    4    5 ar
     9    4   35 1
    10    5   10 ar
    11    5    6 ar
    12    6    7 ar
    13    6   30 ar
    14    7    8 ar
    15    7   11 1
    16    8    9 ar
    17    8   36 1
    18    9   10 ar
    19    9   37 1
    20   11   12 1
    21   11   38 1
    22   12   13 1
    23   12   39 1
    24   12   40 1
    25   13   17 1
    26   13   14 2
    27   14   15 1
    28   15   16 2
    29   16   21 1
    30   16   17 1
    31   17   18 1
    32   18   19 2
    33   19   20 1
    34   19   22 1
    35   20   21 2
    36   20   41 1
    37   21   42 1
    38   22   27 ar
    39   22   23 ar
    40   23   24 ar
    41   23   43 1
    42   24   25 ar
    43   24   29 1
    44   25   26 ar
    45   25   44 1
    46   26   27 ar
    47   26   28 1
    48   27   45 1
    49   30   31 ar
    50   31   46 1
@<TRIPOS>MOLECULE
CHEMBL402004
   53    57     0     0     0
SMALL
USER_CHARGES

@<TRIPOS>ATOM
      1 C1         10.8467    0.9823   -3.5872 C.ar      1 <0>        -0.1129
      2 C2         10.7651   -0.3968   -3.5378 C.ar      1 <0>        -0.1181
      3 C3          9.7513   -1.0039   -2.8205 C.ar      1 <0>        -0.1014
      4 C4          8.8194   -0.2320   -2.1522 C.ar      1 <0>        -0.0803
      5 C5          8.9016    1.1471   -2.2008 C.ar      1 <0>        -0.1014
      6 C6          9.9146    1.7542   -2.9193 C.ar      1 <0>        -0.1181
      7 C7          7.7136   -0.8938   -1.3711 C.3       1 <0>        -0.0930
      8 C8          8.1683   -1.1232    0.0473 C.2       1 <0>         0.4823
      9 O1          9.2804   -0.7828    0.3900 O.2       1 <0>        -0.3884
     10 N1          7.3387   -1.7067    0.9349 N.am      1 <0>        -0.6409
     11 C9          7.7453   -1.9118    2.2034 C.2       1 <0>         0.5054
     12 S1          9.3156   -1.4312    2.6872 S.2       1 <0>        -0.4714
     13 N2          6.9157   -2.4952    3.0909 N.pl3     1 <0>        -0.6249
     14 C10         7.3760   -2.8147    4.3745 C.ar      1 <0>         0.1650
     15 C11         6.5607   -2.6001    5.4780 C.ar      1 <0>        -0.1174
     16 C12         7.0144   -2.9145    6.7440 C.ar      1 <0>        -0.0793
     17 C13         8.2843   -3.4453    6.9144 C.ar      1 <0>         0.0449
     18 C14         9.1012   -3.6607    5.8115 C.ar      1 <0>         0.1096
     19 C15         8.6453   -3.3514    4.5433 C.ar      1 <0>        -0.1024
     20 F1         10.3386   -4.1770    5.9775 F         1 <0>        -0.1183
     21 O2          8.7301   -3.7547    8.1615 O.3       1 <0>        -0.2379
     22 C16         9.4954   -2.8398    8.8099 C.ar      1 <0>         0.2116
     23 C17         9.8941   -1.6612    8.1810 C.ar      1 <0>        -0.2319
     24 C18        10.6741   -0.7661    8.8931 C.ar      1 <0>         0.1616
     25 N3         11.0466   -0.9888   10.1283 N.ar      1 <0>        -0.4759
     26 C19        10.6998   -2.1082   10.8050 C.ar      1 <0>         0.1609
     27 C20         9.8987   -3.0454   10.1160 C.ar      1 <0>        -0.2079
     28 S2          9.6519   -4.3380   11.3059 S.3       1 <0>         0.1246
     29 C21        10.5809   -3.6274   12.6539 C.2       1 <0>        -0.0222
     30 C22        11.0357   -2.4587   12.1251 C.2       1 <0>        -0.1358
     31 C23        10.8093   -4.1757   14.0005 C.2       1 <0>        -0.0968
     32 C24        10.3710   -5.3597   14.5378 C.2       1 <0>        -0.1248
     33 C25        10.7150   -5.6637   15.8354 C.2       1 <0>        -0.1589
     34 C26        11.4746   -4.7868   16.5423 C.2       1 <0>        -0.1625
     35 S3         11.7354   -3.4769   15.3577 S.3       1 <0>         0.0957
     36 H1         11.6414    1.4566   -4.1439 H         1 <0>         0.1233
     37 H2         11.4931   -0.9999   -4.0600 H         1 <0>         0.1239
     38 H3          9.6871   -2.0813   -2.7826 H         1 <0>         0.1202
     39 H4          8.1733    1.7502   -1.6790 H         1 <0>         0.1202
     40 H5          9.9786    2.8316   -2.9576 H         1 <0>         0.1239
     41 H6          6.8336   -0.2507   -1.3710 H         1 <0>         0.1093
     42 H7          7.4650   -1.8498   -1.8320 H         1 <0>         0.1093
     43 H8          6.4489   -1.9790    0.6607 H         1 <0>         0.4126
     44 H9          5.9998   -2.6939    2.8407 H         1 <0>         0.4132
     45 H10         5.5717   -2.1868    5.3462 H         1 <0>         0.1454
     46 H11         6.3801   -2.7466    7.6018 H         1 <0>         0.1519
     47 H12         9.2781   -3.5227    3.6850 H         1 <0>         0.1637
     48 H13         9.6019   -1.4516    7.1626 H         1 <0>         0.1513
     49 H14        10.9870    0.1488    8.4121 H         1 <0>         0.1692
     50 H15        11.6426   -1.7948   12.7230 H         1 <0>         0.1507
     51 H16         9.7678   -6.0394   13.9543 H         1 <0>         0.1386
     52 H17        10.3848   -6.5879   16.2863 H         1 <0>         0.1419
     53 H18        11.8320   -4.8639   17.5585 H         1 <0>         0.1928
@<TRIPOS>BOND
     1    1    6 ar
     2    1    2 ar
     3    1   36 1
     4    2    3 ar
     5    2   37 1
     6    3    4 ar
     7    3   38 1
     8    4    5 ar
     9    4    7 1
    10    5    6 ar
    11    5   39 1
    12    6   40 1
    13    7    8 1
    14    7   41 1
    15    7   42 1
    16    8    9 2
    17    8   10 am
    18   10   11 1
    19   10   43 1
    20   11   12 2
    21   11   13 1
    22   13   14 1
    23   13   44 1
    24   14   19 ar
    25   14   15 ar
    26   15   16 ar
    27   15   45 1
    28   16   17 ar
    29   16   46 1
    30   17   18 ar
    31   17   21 1
    32   18   19 ar
    33   18   20 1
    34   19   47 1
    35   21   22 1
    36   22   27 ar
    37   22   23 ar
    38   23   24 ar
    39   23   48 1
    40   24   25 ar
    41   24   49 1
    42   25   26 ar
    43   26   30 1
    44   26   27 ar
    45   27   28 1
    46   28   29 1
    47   29   30 2
    48   29   31 1
    49   30   50 1
    50   31   35 1
    51   31   32 2
    52   32   33 1
    53   32   51 1
    54   33   34 2
    55   33   52 1
    56   34   35 1
    57   34   53 1
@<TRIPOS>MOLECULE
CHEMBL257987
   51    55     0     0     0
SMALL
USER_CHARGES

@<TRIPOS>ATOM
      1 C1         10.8468    0.9822   -3.5872 C.ar      1 <0>        -0.1128
      2 C2         10.7651   -0.3969   -3.5378 C.ar      1 <0>        -0.1181
      3 C3          9.7513   -1.0040   -2.8205 C.ar      1 <0>        -0.1014
      4 C4          8.8195   -0.2320   -2.1522 C.ar      1 <0>        -0.0804
      5 C5          8.9017    1.1470   -2.2008 C.ar      1 <0>        -0.1014
      6 C6          9.9147    1.7541   -2.9193 C.ar      1 <0>        -0.1181
      7 C7          7.7137   -0.8939   -1.3711 C.3       1 <0>        -0.0930
      8 C8          8.1683   -1.1232    0.0473 C.2       1 <0>         0.4823
      9 O1          9.2804   -0.7829    0.3900 O.2       1 <0>        -0.3882
     10 N1          7.3387   -1.7067    0.9349 N.am      1 <0>        -0.6407
     11 C9          7.7453   -1.9118    2.2033 C.2       1 <0>         0.5054
     12 S1          9.3156   -1.4312    2.6872 S.2       1 <0>        -0.4710
     13 N2          6.9157   -2.4953    3.0909 N.pl3     1 <0>        -0.6253
     14 C10         7.3760   -2.8147    4.3744 C.ar      1 <0>         0.1666
     15 C11         6.5608   -2.6001    5.4780 C.ar      1 <0>        -0.1176
     16 C12         7.0144   -2.9145    6.7440 C.ar      1 <0>        -0.0784
     17 C13         8.2843   -3.4453    6.9144 C.ar      1 <0>         0.0425
     18 C14         9.1012   -3.6607    5.8115 C.ar      1 <0>         0.1101
     19 C15         8.6454   -3.3515    4.5433 C.ar      1 <0>        -0.1025
     20 F1         10.3384   -4.1774    5.9775 F         1 <0>        -0.1181
     21 O2          8.7301   -3.7546    8.1615 O.3       1 <0>        -0.2367
     22 C16         9.4954   -2.8399    8.8098 C.ar      1 <0>         0.2085
     23 C17         9.8939   -1.6619    8.1814 C.ar      1 <0>        -0.2209
     24 C18        10.6743   -0.7665    8.8941 C.ar      1 <0>         0.1618
     25 N3         11.0466   -0.9889   10.1287 N.ar      1 <0>        -0.4659
     26 C19        10.7000   -2.1082   10.8057 C.ar      1 <0>         0.1476
     27 C20         9.8990   -3.0455   10.1170 C.ar      1 <0>        -0.1940
     28 S2          9.6525   -4.3377   11.3073 S.3       1 <0>         0.1392
     29 C21        10.5817   -3.6265   12.6548 C.2       1 <0>        -0.0577
     30 C22        11.0363   -2.4589   12.1259 C.2       1 <0>        -0.0702
     31 C23        10.8109   -4.1749   14.0025 C.2       1 <0>         0.0999
     32 N4         11.4913   -3.6671   15.0269 N.2       1 <0>        -0.2330
     33 N5         11.5517   -4.3283   16.1021 N.2       1 <0>        -0.2890
     34 C24        10.9659   -5.4965   16.2389 C.2       1 <0>        -0.0082
     35 S3         10.2473   -5.7079   14.7287 S.3       1 <0>         0.1302
     36 H1         11.6415    1.4565   -4.1439 H         1 <0>         0.1233
     37 H2         11.4932   -0.9999   -4.0600 H         1 <0>         0.1239
     38 H3          9.6871   -2.0814   -2.7826 H         1 <0>         0.1202
     39 H4          8.1734    1.7501   -1.6790 H         1 <0>         0.1202
     40 H5          9.9786    2.8316   -2.9576 H         1 <0>         0.1239
     41 H6          6.8336   -0.2508   -1.3710 H         1 <0>         0.1094
     42 H7          7.4651   -1.8498   -1.8320 H         1 <0>         0.1093
     43 H8          6.4490   -1.9790    0.6607 H         1 <0>         0.4127
     44 H9          5.9998   -2.6939    2.8407 H         1 <0>         0.4134
     45 H10         5.5717   -2.1867    5.3462 H         1 <0>         0.1458
     46 H11         6.3801   -2.7466    7.6018 H         1 <0>         0.1524
     47 H12         9.2781   -3.5227    3.6850 H         1 <0>         0.1641
     48 H13         9.6017   -1.4522    7.1631 H         1 <0>         0.1541
     49 H14        10.9872    0.1485    8.4131 H         1 <0>         0.1723
     50 H15        11.6429   -1.7948   12.7236 H         1 <0>         0.1632
     51 H16        10.9458   -6.1500   17.0985 H         1 <0>         0.2401
@<TRIPOS>BOND
     1    1    6 ar
     2    1    2 ar
     3    1   36 1
     4    2    3 ar
     5    2   37 1
     6    3    4 ar
     7    3   38 1
     8    4    5 ar
     9    4    7 1
    10    5    6 ar
    11    5   39 1
    12    6   40 1
    13    7    8 1
    14    7   41 1
    15    7   42 1
    16    8    9 2
    17    8   10 am
    18   10   11 1
    19   10   43 1
    20   11   12 2
    21   11   13 1
    22   13   14 1
    23   13   44 1
    24   14   19 ar
    25   14   15 ar
    26   15   16 ar
    27   15   45 1
    28   16   17 ar
    29   16   46 1
    30   17   18 ar
    31   17   21 1
    32   18   19 ar
    33   18   20 1
    34   19   47 1
    35   21   22 1
    36   22   27 ar
    37   22   23 ar
    38   23   24 ar
    39   23   48 1
    40   24   25 ar
    41   24   49 1
    42   25   26 ar
    43   26   30 1
    44   26   27 ar
    45   27   28 1
    46   28   29 1
    47   29   30 2
    48   29   31 1
    49   30   50 1
    50   31   35 1
    51   31   32 2
    52   32   33 1
    53   33   34 2
    54   34   35 1
    55   34   51 1
@<TRIPOS>MOLECULE
CHEMBL258185
   57    61     0     0     0
SMALL
USER_CHARGES

@<TRIPOS>ATOM
      1 C1         -1.2343   -0.7485    1.1939 C.3       1 <0>         0.0659
      2 N1         -0.1689   -0.4404    0.2366 N.pl3     1 <0>        -0.4432
      3 C2          0.0193   -1.0502   -0.9676 C.2       1 <0>         0.0159
      4 C3          1.0987   -0.4982   -1.5647 C.2       1 <0>        -0.1996
      5 C4          1.6035    0.4902   -0.7063 C.2       1 <0>        -0.1394
      6 C5          0.8035    0.5151    0.3999 C.2       1 <0>         0.0632
      7 C6          0.9581    1.4053    1.5622 C.2       1 <0>        -0.0220
      8 C7          1.8365    2.4301    1.7351 C.2       1 <0>        -0.1426
      9 C8          1.8258    3.1693    2.9317 C.ar      1 <0>         0.1680
     10 C9          0.8648    2.7638    3.8840 C.ar      1 <0>        -0.2126
     11 S1          0.0347    1.4120    3.0894 S.3       1 <0>         0.0836
     12 C10         0.7365    3.3971    5.1062 C.ar      1 <0>         0.2128
     13 C11         1.5915    4.4629    5.3824 C.ar      1 <0>        -0.2372
     14 C12         2.5194    4.8288    4.4222 C.ar      1 <0>         0.1616
     15 N2          2.6192    4.2113    3.2723 N.ar      1 <0>        -0.4779
     16 O1         -0.1935    2.9937    6.0091 O.3       1 <0>        -0.2390
     17 C13        -0.1972    3.5898    7.2315 C.ar      1 <0>         0.0531
     18 C14         0.3604    2.9391    8.3219 C.ar      1 <0>        -0.0809
     19 C15         0.3575    3.5438    9.5636 C.ar      1 <0>        -0.0631
     20 C16        -0.2042    4.8040    9.7215 C.ar      1 <0>         0.1565
     21 C17        -0.7627    5.4565    8.6306 C.ar      1 <0>        -0.1430
     22 C18        -0.7545    4.8530    7.3866 C.ar      1 <0>         0.0970
     23 F1         -1.2931    5.4891    6.3233 F         1 <0>        -0.1215
     24 N3         -0.2077    5.4164   10.9810 N.pl3     1 <0>        -0.6253
     25 C19         0.9118    5.4204   11.7315 C.2       1 <0>         0.5082
     26 S2          2.3033    4.5780   11.1976 S.2       1 <0>        -0.4739
     27 N4          0.9358    6.0875   12.9023 N.am      1 <0>        -0.6414
     28 C20         2.0552    6.0914   13.6528 C.2       1 <0>         0.4828
     29 O2          3.0407    5.4949   13.2747 O.2       1 <0>        -0.3888
     30 C21         2.0821    6.8374   14.9620 C.3       1 <0>        -0.0932
     31 C22         3.4391    6.6848   15.5994 C.ar      1 <0>        -0.0803
     32 C23         3.6857    5.6279   16.4555 C.ar      1 <0>        -0.1013
     33 C24         4.9305    5.4879   17.0401 C.ar      1 <0>        -0.1182
     34 C25         5.9288    6.4046   16.7683 C.ar      1 <0>        -0.1129
     35 C26         5.6825    7.4610   15.9114 C.ar      1 <0>        -0.1181
     36 C27         4.4390    7.5986   15.3234 C.ar      1 <0>        -0.1012
     37 H1         -2.1057   -0.1297    0.9793 H         1 <0>         0.0817
     38 H2         -1.5060   -1.8006    1.1089 H         1 <0>         0.0946
     39 H3         -0.8840   -0.5442    2.2056 H         1 <0>         0.0817
     40 H4         -0.5913   -1.8419   -1.3759 H         1 <0>         0.1711
     41 H5          1.5006   -0.7693   -2.5297 H         1 <0>         0.1456
     42 H6          2.4633    1.1178   -0.8885 H         1 <0>         0.1455
     43 H7          2.5414    2.6754    0.9544 H         1 <0>         0.1533
     44 H8          1.5312    4.9908    6.3227 H         1 <0>         0.1477
     45 H9          3.1847    5.6539    4.6293 H         1 <0>         0.1677
     46 H10         0.7968    1.9587    8.2001 H         1 <0>         0.1524
     47 H11         0.7920    3.0363   10.4122 H         1 <0>         0.1630
     48 H12        -1.2000    6.4364    8.7529 H         1 <0>         0.1491
     49 H13        -1.0158    5.8377   11.3132 H         1 <0>         0.4122
     50 H14         0.1474    6.5648   13.2048 H         1 <0>         0.4126
     51 H15         1.8817    7.8936   14.7825 H         1 <0>         0.1092
     52 H16         1.3204    6.4310   15.6274 H         1 <0>         0.1092
     53 H17         2.9058    4.9117   16.6679 H         1 <0>         0.1201
     54 H18         5.1230    4.6626   17.7096 H         1 <0>         0.1238
     55 H19         6.9011    6.2957   17.2256 H         1 <0>         0.1233
     56 H20         6.4624    8.1774   15.6993 H         1 <0>         0.1239
     57 H21         4.2477    8.4218   14.6511 H         1 <0>         0.1202
@<TRIPOS>BOND
     1    1    2 1
     2    1   37 1
     3    1   38 1
     4    1   39 1
     5    2    6 1
     6    2    3 1
     7    3    4 2
     8    3   40 1
     9    4    5 1
    10    4   41 1
    11    5    6 2
    12    5   42 1
    13    6    7 1
    14    7   11 1
    15    7    8 2
    16    8    9 1
    17    8   43 1
    18    9   15 ar
    19    9   10 ar
    20   10   11 1
    21   10   12 ar
    22   12   13 ar
    23   12   16 1
    24   13   14 ar
    25   13   44 1
    26   14   15 ar
    27   14   45 1
    28   16   17 1
    29   17   22 ar
    30   17   18 ar
    31   18   19 ar
    32   18   46 1
    33   19   20 ar
    34   19   47 1
    35   20   21 ar
    36   20   24 1
    37   21   22 ar
    38   21   48 1
    39   22   23 1
    40   24   25 1
    41   24   49 1
    42   25   26 2
    43   25   27 1
    44   27   28 am
    45   27   50 1
    46   28   29 2
    47   28   30 1
    48   30   31 1
    49   30   51 1
    50   30   52 1
    51   31   36 ar
    52   31   32 ar
    53   32   33 ar
    54   32   53 1
    55   33   34 ar
    56   33   54 1
    57   34   35 ar
    58   34   55 1
    59   35   36 ar
    60   35   56 1
    61   36   57 1
@<TRIPOS>MOLECULE
CHEMBL493519
   35    38     0     0     0
SMALL
USER_CHARGES

@<TRIPOS>ATOM
      1 C1         -0.0167    1.3789    0.0096 C.ar      1 <0>        -0.1040
      2 C2          1.1670    2.0883    0.0021 C.ar      1 <0>        -0.0908
      3 C3          2.3850    1.4080   -0.0132 C.ar      1 <0>         0.0001
      4 C4          2.3983    0.0128   -0.0208 C.ar      1 <0>        -0.0922
      5 C5          1.2075   -0.6858   -0.0132 C.ar      1 <0>        -0.0327
      6 C6          0.0021   -0.0041    0.0020 C.ar      1 <0>        -0.1061
      7 Cl1         1.2212   -2.4217   -0.0227 Cl        1 <0>        -0.0676
      8 C7          3.6577    2.1633   -0.0218 C.2       1 <0>        -0.0884
      9 C8          4.1467    3.0510   -1.0875 C.ar      1 <0>         0.1148
     10 C9          5.3941    3.5393   -0.6470 C.ar      1 <0>         0.0803
     11 C10         6.1035    4.4177   -1.4648 C.ar      1 <0>        -0.0762
     12 C11         5.5529    4.7756   -2.6793 C.ar      1 <0>        -0.1026
     13 C12         4.3106    4.2536   -3.0547 C.ar      1 <0>         0.1897
     14 N1          3.6535    3.4199   -2.2614 N.ar      1 <0>        -0.4041
     15 C13         3.7404    4.6259   -4.3144 C.1       1 <0>         0.2670
     16 N2          3.2880    4.9212   -5.3137 N.1       1 <0>        -0.3849
     17 N3          5.6505    2.9955    0.5896 N.pl3     1 <0>        -0.5696
     18 H1          6.4454    3.1679    1.1180 H         1 <0>         0.4261
     19 C14         4.6154    2.1776    0.9709 C.2       1 <0>         0.1527
     20 C15         4.5411    1.4288    2.2410 C.ar      1 <0>         0.0022
     21 C16         3.3595    1.4023    2.9933 C.ar      1 <0>        -0.1359
     22 C17         3.3350    0.6901    4.1739 C.ar      1 <0>         0.1085
     23 N4          4.4032    0.0406    4.5962 N.ar      1 <0>        -0.4744
     24 C18         5.5358    0.0391    3.9191 C.ar      1 <0>         0.1064
     25 C19         5.6483    0.7200    2.7251 C.ar      1 <0>        -0.1578
     26 H2         -0.9598    1.9048    0.0260 H         1 <0>         0.1357
     27 H3          1.1505    3.1681    0.0077 H         1 <0>         0.1299
     28 H4          3.3380   -0.5194   -0.0330 H         1 <0>         0.1300
     29 H5         -0.9271   -0.5546    0.0083 H         1 <0>         0.1345
     30 H6          7.0612    4.8094   -1.1554 H         1 <0>         0.1499
     31 H7          6.0778    5.4545   -3.3351 H         1 <0>         0.1548
     32 H8          2.4815    1.9318    2.6541 H         1 <0>         0.1420
     33 H9          2.4290    0.6638    4.7613 H         1 <0>         0.1633
     34 H10         6.3850   -0.5066    4.3029 H         1 <0>         0.1622
     35 H11         6.5770    0.7106    2.1740 H         1 <0>         0.1373
@<TRIPOS>BOND
     1    1    6 ar
     2    1    2 ar
     3    1   26 1
     4    2    3 ar
     5    2   27 1
     6    3    4 ar
     7    3    8 1
     8    4    5 ar
     9    4   28 1
    10    5    6 ar
    11    5    7 1
    12    6   29 1
    13    8   19 2
    14    8    9 1
    15    9   14 ar
    16    9   10 ar
    17   10   11 ar
    18   10   17 1
    19   11   12 ar
    20   11   30 1
    21   12   13 ar
    22   12   31 1
    23   13   14 ar
    24   13   15 1
    25   15   16 3
    26   17   18 1
    27   17   19 1
    28   19   20 1
    29   20   25 ar
    30   20   21 ar
    31   21   22 ar
    32   21   32 1
    33   22   23 ar
    34   22   33 1
    35   23   24 ar
    36   24   25 ar
    37   24   34 1
    38   25   35 1
@<TRIPOS>MOLECULE
CHEMBL562063
   31    34     0     0     0
SMALL
USER_CHARGES

@<TRIPOS>ATOM
      1 C1         -0.0169    1.3961    0.0097 C.ar      1 <0>        -0.1174
      2 C2          1.1222    2.1259    0.0028 C.ar      1 <0>        -0.0051
      3 C3          2.3783    1.4664   -0.0128 C.ar      1 <0>         0.0723
      4 C4          2.3983   -0.0089   -0.0209 C.ar      1 <0>         0.1316
      5 C5          1.1606   -0.7025   -0.0128 C.ar      1 <0>        -0.6650
      6 C6          0.0021   -0.0041    0.0020 C.ar      1 <0>         0.0869
      7 S1          1.1326   -2.4643   -0.0215 S.o2      1 <0>         2.6814
      8 O1          2.0315   -2.8897    0.9935 O.2       1 <0>        -0.9077
      9 O2         -0.2353   -2.8486   -0.0377 O.2       1 <0>        -0.9180
     10 N1          1.7798   -2.9572   -1.4639 N.pl3     1 <0>        -0.8228
     11 C7          2.9424   -3.6647   -1.6037 C.2       1 <0>         0.0488
     12 C8          3.1802   -3.9026   -2.9037 C.2       1 <0>        -0.1237
     13 C9          2.0805   -3.2985   -3.6604 C.ar      1 <0>         0.0631
     14 C10         1.2259   -2.7217   -2.7017 C.ar      1 <0>         0.0987
     15 C11         0.0741   -2.0695   -3.1295 C.ar      1 <0>        -0.1775
     16 C12        -0.1847   -2.0191   -4.4934 C.ar      1 <0>         0.1961
     17 C13         0.7056   -2.6156   -5.3833 C.ar      1 <0>         0.0467
     18 N2          1.7925   -3.2204   -4.9561 N.ar      1 <0>        -0.4053
     19 N3         -1.3309   -1.3744   -4.9697 N.pl3     1 <0>        -0.8630
     20 N4          3.6516   -0.3999   -0.0350 N.2       1 <0>        -0.2498
     21 O3          4.4700    0.7570   -0.0366 O.3       1 <0>         0.0831
     22 N5          3.6205    1.8913   -0.0224 N.2       1 <0>        -0.2335
     23 H1         -0.9678    1.9079    0.0261 H         1 <0>         0.1682
     24 H2          1.0757    3.2049    0.0087 H         1 <0>         0.1663
     25 H3         -0.9346   -0.5416    0.0081 H         1 <0>         0.1730
     26 H4          3.5754   -3.9842   -0.7890 H         1 <0>         0.1987
     27 H5          4.0235   -4.4381   -3.3142 H         1 <0>         0.1666
     28 H6         -0.6013   -1.6147   -2.4200 H         1 <0>         0.1349
     29 H7          0.5027   -2.5758   -6.4433 H         1 <0>         0.1631
     30 H8         -1.9487   -0.9604   -4.3468 H         1 <0>         0.4023
     31 H9         -1.5082   -1.3413   -5.9228 H         1 <0>         0.4068
@<TRIPOS>BOND
     1    1    6 ar
     2    1    2 ar
     3    1   23 1
     4    2    3 ar
     5    2   24 1
     6    3   22 2
     7    3    4 ar
     8    4    5 ar
     9    4   20 2
    10    5    6 ar
    11    5    7 1
    12    6   25 1
    13    7    8 2
    14    7    9 2
    15    7   10 1
    16   10   14 1
    17   10   11 1
    18   11   12 2
    19   11   26 1
    20   12   13 1
    21   12   27 1
    22   13   18 ar
    23   13   14 ar
    24   14   15 ar
    25   15   16 ar
    26   15   28 1
    27   16   17 ar
    28   16   19 1
    29   17   18 ar
    30   17   29 1
    31   19   30 1
    32   19   31 1
    33   20   21 1
    34   21   22 1
@<TRIPOS>MOLECULE
CHEMBL459875
   50    54     0     0     0
SMALL
USER_CHARGES

@<TRIPOS>ATOM
      1 C1          7.8999    0.9056    4.2117 C.ar      1 <0>        -0.0947
      2 C2          6.5950    1.3630    4.1789 C.ar      1 <0>        -0.1295
      3 C3          5.6856    0.8006    3.3062 C.ar      1 <0>        -0.0889
      4 C4          6.0844   -0.2297    2.4568 C.ar      1 <0>        -0.0758
      5 C5          7.4005   -0.6862    2.4939 C.ar      1 <0>        -0.0497
      6 C6          8.3013   -0.1168    3.3709 C.ar      1 <0>        -0.1286
      7 C7          5.1114   -0.8384    1.5169 C.ar      1 <0>         0.1458
      8 C8          4.1637   -0.0319    0.8857 C.ar      1 <0>        -0.0861
      9 C9          3.2592   -0.6079    0.0100 C.ar      1 <0>        -0.0817
     10 C10         3.3267   -1.9745   -0.2109 C.ar      1 <0>        -0.0937
     11 C11         4.2978   -2.7250    0.4513 C.ar      1 <0>         0.0498
     12 N1          5.1546   -2.1415    1.2814 N.ar      1 <0>        -0.0895
     13 O1          6.1329   -2.9306    1.9335 O.3       1 <0>        -0.4740
     14 C12         4.3781   -4.1844    0.2223 C.2       1 <0>         0.5585
     15 O2          5.1425   -4.8619    0.8813 O.2       1 <0>        -0.4352
     16 N2          3.6036   -4.7628   -0.7170 N.am      1 <0>        -0.6640
     17 C13         3.5767   -6.1570   -0.8407 C.ar      1 <0>         0.1825
     18 C14         4.6905   -6.9073   -0.4867 C.ar      1 <0>        -0.1247
     19 C15         4.6645   -8.2826   -0.6090 C.ar      1 <0>        -0.0647
     20 C16         3.5262   -8.9159   -1.0851 C.ar      1 <0>         0.0320
     21 C17         2.4110   -8.1668   -1.4397 C.ar      1 <0>         0.1113
     22 C18         2.4344   -6.7904   -1.3120 C.ar      1 <0>        -0.1711
     23 F1          1.3025   -8.7837   -1.9043 F         1 <0>        -0.1218
     24 O3          3.5016  -10.2703   -1.2052 O.3       1 <0>        -0.2348
     25 C19         3.5348  -10.7997   -2.4539 C.ar      1 <0>         0.2104
     26 C20         3.7066   -9.9909   -3.5705 C.ar      1 <0>        -0.2835
     27 C21         3.7356  -10.5683   -4.8277 C.ar      1 <0>         0.1777
     28 N3          3.6038  -11.8681   -4.9942 N.ar      1 <0>        -0.5172
     29 C22         3.4369  -12.6922   -3.9664 C.ar      1 <0>         0.3166
     30 C23         3.4027  -12.1807   -2.6574 C.ar      1 <0>        -0.1764
     31 C24         3.2162  -13.3312   -1.7720 C.2       1 <0>        -0.1749
     32 C25         3.1567  -14.4195   -2.5553 C.2       1 <0>         0.0523
     33 N4          3.2790  -14.0537   -3.8700 N.pl3     1 <0>        -0.5785
     34 H1          3.2664  -14.6668   -4.6215 H         1 <0>         0.4233
     35 H2          8.6093    1.3513    4.8933 H         1 <0>         0.1270
     36 H3          6.2870    2.1615    4.8376 H         1 <0>         0.1297
     37 H4          4.6668    1.1581    3.2818 H         1 <0>         0.1271
     38 H5          7.7148   -1.4847    1.8380 H         1 <0>         0.1423
     39 H6          9.3214   -0.4701    3.4007 H         1 <0>         0.1291
     40 H7          4.1359    1.0304    1.0786 H         1 <0>         0.1709
     41 H8          2.5160   -0.0048   -0.4905 H         1 <0>         0.1660
     42 H9          2.6347   -2.4530   -0.8881 H         1 <0>         0.1653
     43 H10         3.0649   -4.2130   -1.3073 H         1 <0>         0.4138
     44 H11         5.5774   -6.4150   -0.1159 H         1 <0>         0.1677
     45 H12         5.5313   -8.8654   -0.3342 H         1 <0>         0.1509
     46 H13         1.5663   -6.2078   -1.5829 H         1 <0>         0.1496
     47 H14         3.8160   -8.9223   -3.4584 H         1 <0>         0.1382
     48 H15         3.8692   -9.9374   -5.6939 H         1 <0>         0.1658
     49 H16         3.1414  -13.3087   -0.6948 H         1 <0>         0.1536
     50 H17         3.0239  -15.4315   -2.2025 H         1 <0>         0.1818
@<TRIPOS>BOND
     1    1    6 ar
     2    1    2 ar
     3    1   35 1
     4    2    3 ar
     5    2   36 1
     6    3    4 ar
     7    3   37 1
     8    4    5 ar
     9    4    7 1
    10    5    6 ar
    11    5   38 1
    12    6   39 1
    13    7   12 ar
    14    7    8 ar
    15    8    9 ar
    16    8   40 1
    17    9   10 ar
    18    9   41 1
    19   10   11 ar
    20   10   42 1
    21   11   12 ar
    22   11   14 1
    23   12   13 1
    24   14   15 2
    25   14   16 am
    26   16   17 1
    27   16   43 1
    28   17   22 ar
    29   17   18 ar
    30   18   19 ar
    31   18   44 1
    32   19   20 ar
    33   19   45 1
    34   20   21 ar
    35   20   24 1
    36   21   22 ar
    37   21   23 1
    38   22   46 1
    39   24   25 1
    40   25   30 ar
    41   25   26 ar
    42   26   27 ar
    43   26   47 1
    44   27   28 ar
    45   27   48 1
    46   28   29 ar
    47   29   33 1
    48   29   30 ar
    49   30   31 1
    50   31   32 2
    51   31   49 1
    52   32   33 1
    53   32   50 1
    54   33   34 1
@<TRIPOS>MOLECULE
CHEMBL600632
   60    64     0     0     0
SMALL
USER_CHARGES

@<TRIPOS>ATOM
      1 C1          1.3882    0.3552    1.0500 C.3       1 <0>         0.0691
      2 N1          0.3323   -0.2357    0.2241 N.pl3     1 <0>        -0.4588
      3 C2          0.5019   -1.1717   -0.7564 C.2       1 <0>        -0.0154
      4 C3         -0.7341   -1.4366   -1.2612 C.2       1 <0>         0.0618
      5 N2         -1.6220   -0.6711   -0.5919 N.2       1 <0>        -0.4697
      6 C4         -0.9885    0.0411    0.2967 C.2       1 <0>         0.1967
      7 C5         -1.0476   -2.3901   -2.3467 C.2       1 <0>        -0.0111
      8 C6         -2.2563   -2.6872   -2.8897 C.2       1 <0>        -0.1349
      9 C7         -2.3477   -3.6334   -3.9276 C.ar      1 <0>         0.1657
     10 C8         -1.1229   -4.2118   -4.3265 C.ar      1 <0>        -0.2095
     11 S1          0.0701   -3.4289   -3.2723 S.3       1 <0>         0.1033
     12 C9         -1.0557   -5.1560   -5.3341 C.ar      1 <0>         0.2120
     13 C10        -2.2446   -5.5308   -5.9582 C.ar      1 <0>        -0.2395
     14 C11        -3.4237   -4.9399   -5.5374 C.ar      1 <0>         0.1594
     15 N3         -3.4583   -4.0478   -4.5798 N.ar      1 <0>        -0.4771
     16 O1          0.1312   -5.7010   -5.7045 O.3       1 <0>        -0.2376
     17 C12         0.1149   -6.6988   -6.6284 C.ar      1 <0>         0.0278
     18 C13         0.0726   -8.0229   -6.2182 C.ar      1 <0>        -0.0680
     19 C14         0.0561   -9.0369   -7.1558 C.ar      1 <0>        -0.1157
     20 C15         0.0822   -8.7315   -8.5101 C.ar      1 <0>         0.1842
     21 C16         0.1246   -7.4063   -8.9221 C.ar      1 <0>        -0.1705
     22 C17         0.1349   -6.3914   -7.9832 C.ar      1 <0>         0.1206
     23 F1          0.1706   -5.1013   -8.3830 F         1 <0>        -0.1206
     24 N4          0.0664   -9.7604   -9.4607 N.am      1 <0>        -0.6717
     25 C18        -0.6418  -10.8830   -9.2268 C.2       1 <0>         0.5196
     26 O2         -1.2073  -11.0331   -8.1643 O.2       1 <0>        -0.4912
     27 C19        -0.7311  -11.9518  -10.2855 C.3       1 <0>        -0.1567
     28 C20        -1.5872  -13.1102   -9.7697 C.3       1 <0>         0.1343
     29 C21        -1.5758  -14.2478  -10.7929 C.3       1 <0>         0.4297
     30 F2         -0.2621  -14.6885  -10.9856 F         1 <0>        -0.1815
     31 F3         -2.3586  -15.3070  -10.3213 F         1 <0>        -0.1702
     32 F4         -2.0963  -13.7879  -12.0073 F         1 <0>        -0.1802
     33 N5         -2.9629  -12.6487   -9.5679 N.pl3     1 <0>        -0.7259
     34 C22        -3.7912  -13.3014   -8.6520 C.ar      1 <0>         0.2108
     35 C23        -3.3104  -14.3846   -7.9275 C.ar      1 <0>        -0.1812
     36 C24        -4.1319  -15.0274   -7.0224 C.ar      1 <0>        -0.0750
     37 C25        -5.4320  -14.5940   -6.8373 C.ar      1 <0>        -0.1682
     38 C26        -5.9139  -13.5159   -7.5569 C.ar      1 <0>        -0.0759
     39 C27        -5.0959  -12.8651   -8.4595 C.ar      1 <0>        -0.1809
     40 H1          1.5302   -0.2496    1.9456 H         1 <0>         0.0827
     41 H2          2.3181    0.3877    0.4823 H         1 <0>         0.0897
     42 H3          1.1019    1.3671    1.3366 H         1 <0>         0.0936
     43 H4          1.4353   -1.6150   -1.0703 H         1 <0>         0.1824
     44 H5         -1.4453    0.7420    0.9797 H         1 <0>         0.2142
     45 H6         -3.1473   -2.1978   -2.5250 H         1 <0>         0.1548
     46 H7         -2.2457   -6.2641   -6.7510 H         1 <0>         0.1461
     47 H8         -4.3486   -5.2253   -6.0163 H         1 <0>         0.1664
     48 H9          0.0529   -8.2613   -5.1651 H         1 <0>         0.1491
     49 H10         0.0231  -10.0678   -6.8354 H         1 <0>         0.1563
     50 H11         0.1453   -7.1683   -9.9753 H         1 <0>         0.1504
     51 H12         0.5651   -9.6649  -10.2872 H         1 <0>         0.4182
     52 H13        -1.1863  -11.5358  -11.1843 H         1 <0>         0.1203
     53 H14         0.2693  -12.3156  -10.5198 H         1 <0>         0.1290
     54 H15        -1.1817  -13.4685   -8.8235 H         1 <0>         0.1327
     55 H16        -3.2985  -11.8899  -10.0703 H         1 <0>         0.4070
     56 H17        -2.2954  -14.7241   -8.0721 H         1 <0>         0.1163
     57 H18        -3.7587  -15.8697   -6.4588 H         1 <0>         0.1216
     58 H19        -6.0726  -15.0989   -6.1293 H         1 <0>         0.1194
     59 H20        -6.9297  -13.1800   -7.4099 H         1 <0>         0.1223
     60 H21        -5.4714  -12.0203   -9.0179 H         1 <0>         0.1195
@<TRIPOS>BOND
     1    1    2 1
     2    1   40 1
     3    1   41 1
     4    1   42 1
     5    2    6 1
     6    2    3 1
     7    3    4 2
     8    3   43 1
     9    4    5 1
    10    4    7 1
    11    5    6 2
    12    6   44 1
    13    7   11 1
    14    7    8 2
    15    8    9 1
    16    8   45 1
    17    9   15 ar
    18    9   10 ar
    19   10   11 1
    20   10   12 ar
    21   12   13 ar
    22   12   16 1
    23   13   14 ar
    24   13   46 1
    25   14   15 ar
    26   14   47 1
    27   16   17 1
    28   17   22 ar
    29   17   18 ar
    30   18   19 ar
    31   18   48 1
    32   19   20 ar
    33   19   49 1
    34   20   21 ar
    35   20   24 1
    36   21   22 ar
    37   21   50 1
    38   22   23 1
    39   24   25 am
    40   24   51 1
    41   25   26 2
    42   25   27 1
    43   27   28 1
    44   27   52 1
    45   27   53 1
    46   28   29 1
    47   28   33 1
    48   28   54 1
    49   29   30 1
    50   29   31 1
    51   29   32 1
    52   33   34 1
    53   33   55 1
    54   34   39 ar
    55   34   35 ar
    56   35   36 ar
    57   35   56 1
    58   36   37 ar
    59   36   57 1
    60   37   38 ar
    61   37   58 1
    62   38   39 ar
    63   38   59 1
    64   39   60 1
@<TRIPOS>MOLECULE
CHEMBL600632__1
   61    65     0     0     0
SMALL
USER_CHARGES

@<TRIPOS>ATOM
      1 C1          1.3882    0.3552    1.0500 C.3       1 <0>         0.0534
      2 N1          0.3323   -0.2357    0.2241 N.pl3     1 <0>        -0.4044
      3 C2          0.5019   -1.1717   -0.7564 C.2       1 <0>         0.0478
      4 C3         -0.7341   -1.4366   -1.2612 C.2       1 <0>         0.1240
      5 N2         -1.6220   -0.6711   -0.5919 N.pl3     1 <0>        -0.4726
      6 C4         -0.9885    0.0411    0.2967 C.cat     1 <0>         0.3046
      7 C5         -1.0476   -2.3901   -2.3467 C.2       1 <0>        -0.1202
      8 C6         -2.2563   -2.6872   -2.8897 C.2       1 <0>        -0.0826
      9 C7         -2.3477   -3.6334   -3.9276 C.ar      1 <0>         0.1387
     10 C8         -1.1229   -4.2118   -4.3265 C.ar      1 <0>        -0.1941
     11 S1          0.0701   -3.4289   -3.2723 S.3       1 <0>         0.1713
     12 C9         -1.0557   -5.1560   -5.3341 C.ar      1 <0>         0.2103
     13 C10        -2.2446   -5.5308   -5.9582 C.ar      1 <0>        -0.2131
     14 C11        -3.4237   -4.9399   -5.5374 C.ar      1 <0>         0.1674
     15 N3         -3.4583   -4.0478   -4.5798 N.ar      1 <0>        -0.4682
     16 O1          0.1312   -5.7010   -5.7045 O.3       1 <0>        -0.2332
     17 C12         0.1149   -6.6988   -6.6284 C.ar      1 <0>         0.0134
     18 C13         0.0726   -8.0229   -6.2182 C.ar      1 <0>        -0.0647
     19 C14         0.0561   -9.0369   -7.1558 C.ar      1 <0>        -0.1158
     20 C15         0.0822   -8.7315   -8.5101 C.ar      1 <0>         0.1946
     21 C16         0.1246   -7.4063   -8.9221 C.ar      1 <0>        -0.1704
     22 C17         0.1349   -6.3914   -7.9832 C.ar      1 <0>         0.1236
     23 F1          0.1706   -5.1013   -8.3830 F         1 <0>        -0.1210
     24 N4          0.0664   -9.7604   -9.4607 N.am      1 <0>        -0.6731
     25 C18        -0.6418  -10.8830   -9.2268 C.2       1 <0>         0.5218
     26 O2         -1.2073  -11.0331   -8.1643 O.2       1 <0>        -0.4907
     27 C19        -0.7311  -11.9518  -10.2855 C.3       1 <0>        -0.1573
     28 C20        -1.5872  -13.1102   -9.7697 C.3       1 <0>         0.1343
     29 C21        -1.5758  -14.2478  -10.7929 C.3       1 <0>         0.4295
     30 F2         -0.2621  -14.6885  -10.9856 F         1 <0>        -0.1810
     31 F3         -2.3586  -15.3070  -10.3213 F         1 <0>        -0.1695
     32 F4         -2.0963  -13.7879  -12.0073 F         1 <0>        -0.1798
     33 N5         -2.9629  -12.6487   -9.5679 N.pl3     1 <0>        -0.7266
     34 C22        -3.7912  -13.3014   -8.6520 C.ar      1 <0>         0.2099
     35 C23        -3.3104  -14.3846   -7.9275 C.ar      1 <0>        -0.1809
     36 C24        -4.1319  -15.0274   -7.0224 C.ar      1 <0>        -0.0744
     37 C25        -5.4320  -14.5940   -6.8373 C.ar      1 <0>        -0.1674
     38 C26        -5.9139  -13.5159   -7.5569 C.ar      1 <0>        -0.0762
     39 C27        -5.0959  -12.8651   -8.4595 C.ar      1 <0>        -0.1815
     40 H1          1.5302   -0.2496    1.9456 H         1 <0>         0.1147
     41 H2          2.3181    0.3877    0.4823 H         1 <0>         0.1204
     42 H3          1.1019    1.3671    1.3366 H         1 <0>         0.1194
     43 H4          1.4353   -1.6150   -1.0703 H         1 <0>         0.2279
     44 H5         -1.4453    0.7420    0.9797 H         1 <0>         0.2685
     45 H6         -3.1473   -2.1978   -2.5250 H         1 <0>         0.1501
     46 H7         -2.2457   -6.2641   -6.7510 H         1 <0>         0.1561
     47 H8         -4.3486   -5.2253   -6.0163 H         1 <0>         0.1763
     48 H9          0.0529   -8.2613   -5.1651 H         1 <0>         0.1494
     49 H10         0.0231  -10.0678   -6.8354 H         1 <0>         0.1592
     50 H11         0.1453   -7.1683   -9.9753 H         1 <0>         0.1536
     51 H12         0.5651   -9.6649  -10.2872 H         1 <0>         0.4204
     52 H13        -1.1863  -11.5358  -11.1843 H         1 <0>         0.1216
     53 H14         0.2693  -12.3156  -10.5198 H         1 <0>         0.1307
     54 H15        -1.1817  -13.4685   -8.8235 H         1 <0>         0.1328
     55 H16        -3.2985  -11.8899  -10.0703 H         1 <0>         0.4066
     56 H17        -2.2954  -14.7241   -8.0721 H         1 <0>         0.1166
     57 H18        -3.7587  -15.8697   -6.4588 H         1 <0>         0.1224
     58 H19        -6.0726  -15.0989   -6.1293 H         1 <0>         0.1200
     59 H20        -6.9297  -13.1800   -7.4099 H         1 <0>         0.1223
     60 H21        -5.4714  -12.0203   -9.0179 H         1 <0>         0.1190
     61 H22        -2.5796   -0.6560   -0.7457 H         1 <0>         0.4660
@<TRIPOS>BOND
     1    1    2 1
     2    1   40 1
     3    1   41 1
     4    1   42 1
     5    2    6 1
     6    2    3 1
     7    3    4 2
     8    3   43 1
     9    4    5 1
    10    4    7 1
    11    5    6 2
    12    5   61 1
    13    6   44 1
    14    7   11 1
    15    7    8 2
    16    8    9 1
    17    8   45 1
    18    9   15 ar
    19    9   10 ar
    20   10   11 1
    21   10   12 ar
    22   12   13 ar
    23   12   16 1
    24   13   14 ar
    25   13   46 1
    26   14   15 ar
    27   14   47 1
    28   16   17 1
    29   17   22 ar
    30   17   18 ar
    31   18   19 ar
    32   18   48 1
    33   19   20 ar
    34   19   49 1
    35   20   21 ar
    36   20   24 1
    37   21   22 ar
    38   21   50 1
    39   22   23 1
    40   24   25 am
    41   24   51 1
    42   25   26 2
    43   25   27 1
    44   27   28 1
    45   27   52 1
    46   27   53 1
    47   28   29 1
    48   28   33 1
    49   28   54 1
    50   29   30 1
    51   29   31 1
    52   29   32 1
    53   33   34 1
    54   33   55 1
    55   34   39 ar
    56   34   35 ar
    57   35   36 ar
    58   35   56 1
    59   36   37 ar
    60   36   57 1
    61   37   38 ar
    62   37   58 1
    63   38   39 ar
    64   38   59 1
    65   39   60 1
@<TRIPOS>MOLECULE
CHEMBL600632__2
   60    64     0     0     0
SMALL
USER_CHARGES

@<TRIPOS>ATOM
      1 C1          1.0180    0.3538    1.0931 C.3       1 <0>         0.0691
      2 N1          0.0382   -0.1165    0.1107 N.pl3     1 <0>        -0.4589
      3 C2          0.2363   -1.0920   -0.8249 C.2       1 <0>        -0.0155
      4 C3         -0.9277   -1.2074   -1.5210 C.2       1 <0>         0.0620
      5 N2         -1.8015   -0.3158   -1.0074 N.2       1 <0>        -0.4697
      6 C4         -1.2290    0.3312   -0.0319 C.2       1 <0>         0.1967
      7 C5         -1.1878   -2.1403   -2.6381 C.2       1 <0>        -0.0113
      8 C6         -2.3233   -2.2921   -3.3673 C.2       1 <0>        -0.1346
      9 C7         -2.3727   -3.2454   -4.4016 C.ar      1 <0>         0.1654
     10 C8         -1.1875   -3.9882   -4.5950 C.ar      1 <0>        -0.2092
     11 S1         -0.0845   -3.3393   -3.3661 S.3       1 <0>         0.1027
     12 C9         -1.0864   -4.9592   -5.5737 C.ar      1 <0>         0.2115
     13 C10        -2.1997   -5.1927   -6.3794 C.ar      1 <0>        -0.2391
     14 C11        -3.3421   -4.4429   -6.1572 C.ar      1 <0>         0.1596
     15 N3         -3.4103   -3.5291   -5.2222 N.ar      1 <0>        -0.4770
     16 O1          0.0617   -5.6632   -5.7452 O.3       1 <0>        -0.2373
     17 C12         0.0626   -6.6703   -6.6592 C.ar      1 <0>         0.0253
     18 C13        -0.1709   -7.9756   -6.2528 C.ar      1 <0>        -0.0655
     19 C14        -0.1702   -8.9989   -7.1803 C.ar      1 <0>        -0.1406
     20 C15         0.0648   -8.7219   -8.5205 C.ar      1 <0>         0.1871
     21 C16         0.2987   -7.4156   -8.9286 C.ar      1 <0>        -0.1483
     22 C17         0.2918   -6.3906   -8.0007 C.ar      1 <0>         0.1221
     23 F1          0.5138   -5.1184   -8.3974 F         1 <0>        -0.1197
     24 N4          0.0664   -9.7604   -9.4607 N.am      1 <0>        -0.6717
     25 C18        -0.3806   -9.5369  -10.7124 C.2       1 <0>         0.5175
     26 O2         -0.8686   -8.4643  -10.9996 O.2       1 <0>        -0.4899
     27 C19        -0.2740  -10.6197  -11.7551 C.3       1 <0>        -0.1566
     28 C20        -0.8492  -10.1115  -13.0787 C.3       1 <0>         0.1339
     29 C21        -0.6286  -11.1631  -14.1678 C.3       1 <0>         0.4299
     30 F2         -1.2716  -12.3516  -13.8056 F         1 <0>        -0.1802
     31 F3         -1.1545  -10.6985  -15.3781 F         1 <0>        -0.1701
     32 F4          0.7421  -11.4008  -14.3157 F         1 <0>        -0.1815
     33 N5         -2.2846   -9.8626  -12.9238 N.pl3     1 <0>        -0.7259
     34 C22        -2.9275   -8.9424  -13.7550 C.ar      1 <0>         0.2105
     35 C23        -2.2085   -8.2668  -14.7329 C.ar      1 <0>        -0.1813
     36 C24        -2.8474   -7.3580  -15.5534 C.ar      1 <0>        -0.0749
     37 C25        -4.2012   -7.1200  -15.4021 C.ar      1 <0>        -0.1681
     38 C26        -4.9199   -7.7909  -14.4296 C.ar      1 <0>        -0.0760
     39 C27        -4.2884   -8.7052  -13.6095 C.ar      1 <0>        -0.1809
     40 H1          0.9343   -0.2407    2.0029 H         1 <0>         0.0827
     41 H2          2.0224    0.2504    0.6826 H         1 <0>         0.0897
     42 H3          0.8261    1.4015    1.3247 H         1 <0>         0.0936
     43 H4          1.1408   -1.6609   -0.9820 H         1 <0>         0.1824
     44 H5         -1.6918    1.1032    0.5650 H         1 <0>         0.2142
     45 H6         -3.1882   -1.6818   -3.1535 H         1 <0>         0.1548
     46 H7         -2.1717   -5.9402   -7.1584 H         1 <0>         0.1463
     47 H8         -4.2086   -4.6184   -6.7776 H         1 <0>         0.1666
     48 H9         -0.3531   -8.1919   -5.2105 H         1 <0>         0.1505
     49 H10        -0.3521  -10.0151   -6.8629 H         1 <0>         0.1459
     50 H11         0.4819   -7.1997   -9.9708 H         1 <0>         0.1565
     51 H12         0.3891  -10.6403   -9.2108 H         1 <0>         0.4191
     52 H13         0.7731  -10.8889  -11.8935 H         1 <0>         0.1296
     53 H14        -0.8342  -11.4956  -11.4279 H         1 <0>         0.1200
     54 H15        -0.3482   -9.1855  -13.3609 H         1 <0>         0.1323
     55 H16        -2.7885  -10.3367  -12.2440 H         1 <0>         0.4069
     56 H17        -1.1510   -8.4517  -14.8511 H         1 <0>         0.1164
     57 H18        -2.2890   -6.8323  -16.3138 H         1 <0>         0.1217
     58 H19        -4.6982   -6.4083  -16.0446 H         1 <0>         0.1195
     59 H20        -5.9771   -7.6027  -14.3141 H         1 <0>         0.1223
     60 H21        -4.8512   -9.2321  -12.8532 H         1 <0>         0.1195
@<TRIPOS>BOND
     1    1    2 1
     2    1   40 1
     3    1   41 1
     4    1   42 1
     5    2    6 1
     6    2    3 1
     7    3    4 2
     8    3   43 1
     9    4    5 1
    10    4    7 1
    11    5    6 2
    12    6   44 1
    13    7   11 1
    14    7    8 2
    15    8    9 1
    16    8   45 1
    17    9   15 ar
    18    9   10 ar
    19   10   11 1
    20   10   12 ar
    21   12   13 ar
    22   12   16 1
    23   13   14 ar
    24   13   46 1
    25   14   15 ar
    26   14   47 1
    27   16   17 1
    28   17   22 ar
    29   17   18 ar
    30   18   19 ar
    31   18   48 1
    32   19   20 ar
    33   19   49 1
    34   20   21 ar
    35   20   24 1
    36   21   22 ar
    37   21   50 1
    38   22   23 1
    39   24   25 am
    40   24   51 1
    41   25   26 2
    42   25   27 1
    43   27   28 1
    44   27   52 1
    45   27   53 1
    46   28   29 1
    47   28   33 1
    48   28   54 1
    49   29   30 1
    50   29   31 1
    51   29   32 1
    52   33   34 1
    53   33   55 1
    54   34   39 ar
    55   34   35 ar
    56   35   36 ar
    57   35   56 1
    58   36   37 ar
    59   36   57 1
    60   37   38 ar
    61   37   58 1
    62   38   39 ar
    63   38   59 1
    64   39   60 1
@<TRIPOS>MOLECULE
CHEMBL600632__3
   61    65     0     0     0
SMALL
USER_CHARGES

@<TRIPOS>ATOM
      1 C1          1.0180    0.3538    1.0931 C.3       1 <0>         0.0534
      2 N1          0.0382   -0.1165    0.1107 N.pl3     1 <0>        -0.4045
      3 C2          0.2363   -1.0920   -0.8249 C.2       1 <0>         0.0477
      4 C3         -0.9277   -1.2074   -1.5210 C.2       1 <0>         0.1241
      5 N2         -1.8015   -0.3158   -1.0074 N.pl3     1 <0>        -0.4725
      6 C4         -1.2290    0.3312   -0.0319 C.cat     1 <0>         0.3045
      7 C5         -1.1878   -2.1403   -2.6381 C.2       1 <0>        -0.1205
      8 C6         -2.3233   -2.2921   -3.3673 C.2       1 <0>        -0.0823
      9 C7         -2.3727   -3.2454   -4.4016 C.ar      1 <0>         0.1384
     10 C8         -1.1875   -3.9882   -4.5950 C.ar      1 <0>        -0.1938
     11 S1         -0.0845   -3.3393   -3.3661 S.3       1 <0>         0.1707
     12 C9         -1.0864   -4.9592   -5.5737 C.ar      1 <0>         0.2098
     13 C10        -2.1997   -5.1927   -6.3794 C.ar      1 <0>        -0.2127
     14 C11        -3.3421   -4.4429   -6.1572 C.ar      1 <0>         0.1676
     15 N3         -3.4103   -3.5291   -5.2222 N.ar      1 <0>        -0.4680
     16 O1          0.0617   -5.6632   -5.7452 O.3       1 <0>        -0.2330
     17 C12         0.0626   -6.6703   -6.6592 C.ar      1 <0>         0.0109
     18 C13        -0.1709   -7.9756   -6.2528 C.ar      1 <0>        -0.0619
     19 C14        -0.1702   -8.9989   -7.1803 C.ar      1 <0>        -0.1406
     20 C15         0.0648   -8.7219   -8.5205 C.ar      1 <0>         0.1974
     21 C16         0.2987   -7.4156   -8.9286 C.ar      1 <0>        -0.1483
     22 C17         0.2918   -6.3906   -8.0007 C.ar      1 <0>         0.1248
     23 F1          0.5138   -5.1184   -8.3974 F         1 <0>        -0.1202
     24 N4          0.0664   -9.7604   -9.4607 N.am      1 <0>        -0.6730
     25 C18        -0.3806   -9.5369  -10.7124 C.2       1 <0>         0.5197
     26 O2         -0.8686   -8.4643  -10.9996 O.2       1 <0>        -0.4894
     27 C19        -0.2740  -10.6197  -11.7551 C.3       1 <0>        -0.1572
     28 C20        -0.8492  -10.1115  -13.0787 C.3       1 <0>         0.1340
     29 C21        -0.6286  -11.1631  -14.1678 C.3       1 <0>         0.4297
     30 F2         -1.2716  -12.3516  -13.8056 F         1 <0>        -0.1797
     31 F3         -1.1545  -10.6985  -15.3781 F         1 <0>        -0.1693
     32 F4          0.7421  -11.4008  -14.3157 F         1 <0>        -0.1810
     33 N5         -2.2846   -9.8626  -12.9238 N.pl3     1 <0>        -0.7266
     34 C22        -2.9275   -8.9424  -13.7550 C.ar      1 <0>         0.2094
     35 C23        -2.2085   -8.2668  -14.7329 C.ar      1 <0>        -0.1811
     36 C24        -2.8474   -7.3580  -15.5534 C.ar      1 <0>        -0.0745
     37 C25        -4.2012   -7.1200  -15.4021 C.ar      1 <0>        -0.1672
     38 C26        -4.9199   -7.7909  -14.4296 C.ar      1 <0>        -0.0762
     39 C27        -4.2884   -8.7052  -13.6095 C.ar      1 <0>        -0.1813
     40 H1          0.9343   -0.2407    2.0029 H         1 <0>         0.1146
     41 H2          2.0224    0.2504    0.6826 H         1 <0>         0.1204
     42 H3          0.8261    1.4015    1.3247 H         1 <0>         0.1194
     43 H4          1.1408   -1.6609   -0.9820 H         1 <0>         0.2279
     44 H5         -1.6918    1.1032    0.5650 H         1 <0>         0.2685
     45 H6         -3.1882   -1.6818   -3.1535 H         1 <0>         0.1500
     46 H7         -2.1717   -5.9402   -7.1584 H         1 <0>         0.1563
     47 H8         -4.2086   -4.6184   -6.7776 H         1 <0>         0.1765
     48 H9         -0.3531   -8.1919   -5.2105 H         1 <0>         0.1509
     49 H10        -0.3521  -10.0151   -6.8629 H         1 <0>         0.1490
     50 H11         0.4819   -7.1997   -9.9708 H         1 <0>         0.1595
     51 H12         0.3891  -10.6403   -9.2108 H         1 <0>         0.4213
     52 H13         0.7731  -10.8889  -11.8935 H         1 <0>         0.1311
     53 H14        -0.8342  -11.4956  -11.4279 H         1 <0>         0.1214
     54 H15        -0.3482   -9.1855  -13.3609 H         1 <0>         0.1323
     55 H16        -2.7885  -10.3367  -12.2440 H         1 <0>         0.4066
     56 H17        -1.1510   -8.4517  -14.8511 H         1 <0>         0.1166
     57 H18        -2.2890   -6.8323  -16.3138 H         1 <0>         0.1224
     58 H19        -4.6982   -6.4083  -16.0446 H         1 <0>         0.1202
     59 H20        -5.9771   -7.6027  -14.3141 H         1 <0>         0.1225
     60 H21        -4.8512   -9.2321  -12.8532 H         1 <0>         0.1192
     61 H22        -2.7119   -0.1806   -1.3137 H         1 <0>         0.4660
@<TRIPOS>BOND
     1    1    2 1
     2    1   40 1
     3    1   41 1
     4    1   42 1
     5    2    6 1
     6    2    3 1
     7    3    4 2
     8    3   43 1
     9    4    5 1
    10    4    7 1
    11    5    6 2
    12    5   61 1
    13    6   44 1
    14    7   11 1
    15    7    8 2
    16    8    9 1
    17    8   45 1
    18    9   15 ar
    19    9   10 ar
    20   10   11 1
    21   10   12 ar
    22   12   13 ar
    23   12   16 1
    24   13   14 ar
    25   13   46 1
    26   14   15 ar
    27   14   47 1
    28   16   17 1
    29   17   22 ar
    30   17   18 ar
    31   18   19 ar
    32   18   48 1
    33   19   20 ar
    34   19   49 1
    35   20   21 ar
    36   20   24 1
    37   21   22 ar
    38   21   50 1
    39   22   23 1
    40   24   25 am
    41   24   51 1
    42   25   26 2
    43   25   27 1
    44   27   28 1
    45   27   52 1
    46   27   53 1
    47   28   29 1
    48   28   33 1
    49   28   54 1
    50   29   30 1
    51   29   31 1
    52   29   32 1
    53   33   34 1
    54   33   55 1
    55   34   39 ar
    56   34   35 ar
    57   35   36 ar
    58   35   56 1
    59   36   37 ar
    60   36   57 1
    61   37   38 ar
    62   37   58 1
    63   38   39 ar
    64   38   59 1
    65   39   60 1
@<TRIPOS>MOLECULE
CHEMBL1096536
   53    56     0     0     0
SMALL
USER_CHARGES

@<TRIPOS>ATOM
      1 C1         -1.0208    1.9001   -4.2337 C.3       1 <0>        -0.1453
      2 S1         -0.6484    0.2889   -3.4880 S.3       1 <0>         0.0171
      3 C2         -2.0706   -0.0675   -2.5108 C.ar      1 <0>         0.3615
      4 N1         -3.0721    0.8050   -2.4897 N.ar      1 <0>        -0.5575
      5 C3         -4.1571    0.5808   -1.7724 C.ar      1 <0>         0.2452
      6 C4         -4.2465   -0.5986   -1.0240 C.ar      1 <0>        -0.3180
      7 C5         -3.1619   -1.5020   -1.0714 C.ar      1 <0>         0.4982
      8 N2         -2.1102   -1.2002   -1.8237 N.ar      1 <0>        -0.5545
      9 N3         -3.1969   -2.6796   -0.3533 N.pl3     1 <0>        -0.6248
     10 C6         -2.0634   -3.4992   -0.2972 C.ar      1 <0>         0.1752
     11 C7         -0.7958   -2.9319   -0.2875 C.ar      1 <0>        -0.0841
     12 C8          0.3227   -3.7402   -0.2328 C.ar      1 <0>        -0.1416
     13 C9          0.1813   -5.1190   -0.1870 C.ar      1 <0>         0.0514
     14 C10        -1.0860   -5.6883   -0.1966 C.ar      1 <0>         0.1269
     15 C11        -2.2063   -4.8795   -0.2457 C.ar      1 <0>        -0.1419
     16 F1         -1.2236   -7.0315   -0.1525 F         1 <0>        -0.1171
     17 O1          1.2835   -5.9141   -0.1331 O.3       1 <0>        -0.2416
     18 C12         2.5017   -5.3207   -0.2102 C.ar      1 <0>         0.2561
     19 C13         3.0498   -4.6686    0.8943 C.ar      1 <0>        -0.1948
     20 C14         4.2896   -4.0772    0.7804 C.ar      1 <0>         0.1708
     21 N4          4.9602   -4.1208   -0.3561 N.ar      1 <0>        -0.5077
     22 C15         4.4759   -4.7293   -1.4290 C.ar      1 <0>         0.4707
     23 C16         3.2358   -5.3530   -1.3899 C.ar      1 <0>        -0.2095
     24 N5          5.2192   -4.7485   -2.6038 N.pl3     1 <0>        -0.8136
     25 C17        -5.4371   -0.8890   -0.2100 C.2       1 <0>         0.5913
     26 O2         -5.5424   -1.9626    0.3523 O.2       1 <0>        -0.5274
     27 N6         -6.4111    0.0344   -0.0873 N.am      1 <0>        -0.6564
     28 C18        -7.4934   -0.1989    0.7710 C.ar      1 <0>         0.1006
     29 C19        -7.3277   -0.9897    1.8997 C.ar      1 <0>        -0.0668
     30 C20        -8.3959   -1.2184    2.7452 C.ar      1 <0>        -0.1401
     31 C21        -9.6325   -0.6600    2.4681 C.ar      1 <0>         0.1231
     32 C22        -9.8020    0.1289    1.3430 C.ar      1 <0>        -0.1691
     33 C23        -8.7340    0.3659    0.4968 C.ar      1 <0>         0.1077
     34 F2         -8.8975    1.1403   -0.5982 F         1 <0>        -0.1261
     35 F3        -10.6754   -0.8859    3.2967 F         1 <0>        -0.1256
     36 H1         -0.1880    2.2094   -4.8652 H         1 <0>         0.1165
     37 H2         -1.9247    1.8206   -4.8377 H         1 <0>         0.0961
     38 H3         -1.1736    2.6382   -3.4464 H         1 <0>         0.0954
     39 H4         -4.9648    1.2977   -1.7629 H         1 <0>         0.1773
     40 H5         -4.0069   -2.9396    0.1128 H         1 <0>         0.4422
     41 H6         -0.6847   -1.8582   -0.3231 H         1 <0>         0.1495
     42 H7          1.3081   -3.2983   -0.2259 H         1 <0>         0.1367
     43 H8         -3.1919   -5.3211   -0.2487 H         1 <0>         0.1586
     44 H9          2.5087   -4.6273    1.8280 H         1 <0>         0.1901
     45 H10         4.7183   -3.5707    1.6325 H         1 <0>         0.2173
     46 H11         2.8457   -5.8521   -2.2646 H         1 <0>         0.1893
     47 H12         6.0877   -4.3178   -2.6352 H         1 <0>         0.4250
     48 H13        -6.3627    0.8606   -0.5932 H         1 <0>         0.4165
     49 H14        -6.3640   -1.4263    2.1166 H         1 <0>         0.1595
     50 H15        -8.2666   -1.8337    3.6233 H         1 <0>         0.1505
     51 H16       -10.7673    0.5631    1.1286 H         1 <0>         0.1573
     52 H17         5.8307   -3.6958   -0.4071 H         1 <0>         0.4469
     53 H18         4.8692   -5.1926   -3.3920 H         1 <0>         0.4431
@<TRIPOS>BOND
     1    1    2 1
     2    1   36 1
     3    1   37 1
     4    1   38 1
     5    2    3 1
     6    3    8 ar
     7    3    4 ar
     8    4    5 ar
     9    5    6 ar
    10    5   39 1
    11    6    7 ar
    12    6   25 1
    13    7    8 ar
    14    7    9 1
    15    9   10 1
    16    9   40 1
    17   10   15 ar
    18   10   11 ar
    19   11   12 ar
    20   11   41 1
    21   12   13 ar
    22   12   42 1
    23   13   14 ar
    24   13   17 1
    25   14   15 ar
    26   14   16 1
    27   15   43 1
    28   17   18 1
    29   18   19 ar
    30   18   23 ar
    31   19   44 1
    32   19   20 ar
    33   20   45 1
    34   20   21 ar
    35   21   52 1
    36   21   22 ar
    37   22   24 1
    38   22   23 ar
    39   23   46 1
    40   24   47 1
    41   24   53 1
    42   25   26 2
    43   25   27 am
    44   27   28 1
    45   27   48 1
    46   28   33 ar
    47   28   29 ar
    48   29   30 ar
    49   29   49 1
    50   30   31 ar
    51   30   50 1
    52   31   32 ar
    53   31   35 1
    54   32   33 ar
    55   32   51 1
    56   33   34 1
@<TRIPOS>MOLECULE
CHEMBL1089116
   54    58     0     0     0
SMALL
USER_CHARGES

@<TRIPOS>ATOM
      1 C1         -1.7463   -1.6801   -0.6901 C.3       1 <0>        -0.1663
      2 C2         -0.2856   -2.0203   -0.3878 C.3       1 <0>         0.1290
      3 N1          0.5806   -1.3794   -1.3803 N.pl3     1 <0>        -0.3635
      4 C3          1.6148   -0.5584   -1.1102 C.2       1 <0>         0.0778
      5 C4          2.1644   -0.1738   -2.2985 C.2       1 <0>        -0.1943
      6 C5          1.4197   -0.7976   -3.3327 C.2       1 <0>         0.1386
      7 N2          0.4777   -1.5212   -2.7692 N.2       1 <0>        -0.2784
      8 C6          1.6638   -0.6619   -4.7888 C.ar      1 <0>        -0.0228
      9 C7          2.9661   -0.7027   -5.2854 C.ar      1 <0>        -0.0669
     10 C8          3.1904   -0.5768   -6.6398 C.ar      1 <0>        -0.1160
     11 C9          2.1199   -0.4089   -7.5100 C.ar      1 <0>         0.1672
     12 C10         0.8210   -0.3680   -7.0175 C.ar      1 <0>        -0.1448
     13 C11         0.5911   -0.4992   -5.6645 C.ar      1 <0>        -0.0708
     14 N3          2.3502   -0.2805   -8.8835 N.am      1 <0>        -0.6812
     15 C12         3.3510   -0.9699   -9.4663 C.2       1 <0>         0.7036
     16 O1          4.1045   -1.6394   -8.7864 O.2       1 <0>        -0.5507
     17 N4          3.5164   -0.9173  -10.8029 N.am      1 <0>        -0.6827
     18 C13         4.4856   -1.7160  -11.4199 C.ar      1 <0>         0.1606
     19 C14         5.1722   -1.2437  -12.5308 C.ar      1 <0>        -0.1459
     20 C15         6.1286   -2.0343  -13.1373 C.ar      1 <0>        -0.1005
     21 C16         6.4027   -3.2949  -12.6395 C.ar      1 <0>        -0.1344
     22 C17         5.7205   -3.7683  -11.5338 C.ar      1 <0>        -0.0999
     23 C18         4.7670   -2.9804  -10.9193 C.ar      1 <0>        -0.1183
     24 C19         3.3247    0.7287   -2.4760 C.ar      1 <0>         0.0902
     25 C20         4.5995    0.3567   -2.0470 C.ar      1 <0>        -0.1985
     26 C21         5.6558    1.2294   -2.2319 C.ar      1 <0>         0.1408
     27 N5          5.4913    2.4049   -2.8028 N.ar      1 <0>        -0.5035
     28 C22         4.3052    2.8178   -3.2325 C.ar      1 <0>         0.2876
     29 C23         3.1795    1.9875   -3.0882 C.ar      1 <0>        -0.1337
     30 C24         2.0519    2.7213   -3.6600 C.2       1 <0>        -0.1815
     31 C25         2.5344    3.8942   -4.1025 C.2       1 <0>         0.0562
     32 N6          3.8775    3.9708   -3.8462 N.pl3     1 <0>        -0.5837
     33 H1          4.4455    4.7231   -4.0747 H         1 <0>         0.4189
     34 H2         -1.8838   -0.5996   -0.6487 H         1 <0>         0.0611
     35 H3         -2.0050   -2.0413   -1.6855 H         1 <0>         0.0716
     36 H4         -2.3908   -2.1569    0.0483 H         1 <0>         0.0767
     37 H5         -0.0269   -1.6590    0.6075 H         1 <0>         0.0983
     38 H6         -0.1481   -3.1008   -0.4292 H         1 <0>         0.0877
     39 H7          1.9488   -0.2580   -0.1280 H         1 <0>         0.1781
     40 H8          3.7984   -0.8324   -4.6095 H         1 <0>         0.1252
     41 H9          4.1989   -0.6083   -7.0249 H         1 <0>         0.1419
     42 H10        -0.0092   -0.2371   -7.6957 H         1 <0>         0.1282
     43 H11        -0.4188   -0.4717   -5.2828 H         1 <0>         0.1291
     44 H12         1.7897    0.3047   -9.4166 H         1 <0>         0.4086
     45 H13         2.9635   -0.3257  -11.3371 H         1 <0>         0.4082
     46 H14         4.9583   -0.2594  -12.9203 H         1 <0>         0.1248
     47 H15         6.6626   -1.6677  -14.0014 H         1 <0>         0.1268
     48 H16         7.1510   -3.9113  -13.1155 H         1 <0>         0.1239
     49 H17         5.9366   -4.7535  -11.1476 H         1 <0>         0.1262
     50 H18         4.2379   -3.3488  -10.0528 H         1 <0>         0.1347
     51 H19         4.7591   -0.6018   -1.5755 H         1 <0>         0.1360
     52 H20         6.6417    0.9398   -1.8993 H         1 <0>         0.1604
     53 H21         1.0273    2.3846   -3.7166 H         1 <0>         0.1445
     54 H22         1.9487    4.6655   -4.5805 H         1 <0>         0.1757
@<TRIPOS>BOND
     1    1    2 1
     2    1   34 1
     3    1   35 1
     4    1   36 1
     5    2    3 1
     6    2   37 1
     7    2   38 1
     8    3    7 1
     9    3    4 1
    10    4    5 2
    11    4   39 1
    12    5    6 1
    13    5   24 1
    14    6    7 2
    15    6    8 1
    16    8   13 ar
    17    8    9 ar
    18    9   10 ar
    19    9   40 1
    20   10   11 ar
    21   10   41 1
    22   11   12 ar
    23   11   14 1
    24   12   13 ar
    25   12   42 1
    26   13   43 1
    27   14   15 am
    28   14   44 1
    29   15   16 2
    30   15   17 am
    31   17   18 1
    32   17   45 1
    33   18   23 ar
    34   18   19 ar
    35   19   20 ar
    36   19   46 1
    37   20   21 ar
    38   20   47 1
    39   21   22 ar
    40   21   48 1
    41   22   23 ar
    42   22   49 1
    43   23   50 1
    44   24   29 ar
    45   24   25 ar
    46   25   26 ar
    47   25   51 1
    48   26   27 ar
    49   26   52 1
    50   27   28 ar
    51   28   32 1
    52   28   29 ar
    53   29   30 1
    54   30   31 2
    55   30   53 1
    56   31   32 1
    57   31   54 1
    58   32   33 1
@<TRIPOS>MOLECULE
CHEMBL1096519
   49    52     0     0     0
SMALL
USER_CHARGES

@<TRIPOS>ATOM
      1 C1          0.1672    1.3236   -0.1304 C.ar      1 <0>        -0.1172
      2 C2          1.3870    1.9599   -0.2568 C.ar      1 <0>        -0.1399
      3 C3          2.4510    1.3073   -0.8600 C.ar      1 <0>         0.0470
      4 C4          2.2913    0.0125   -1.3385 C.ar      1 <0>         0.1273
      5 C5          1.0713   -0.6249   -1.2125 C.ar      1 <0>        -0.1191
      6 C6          0.0059    0.0297   -0.6075 C.ar      1 <0>         0.1817
      7 N1         -1.2299   -0.6148   -0.4790 N.pl3     1 <0>        -0.6327
      8 C7         -1.2783   -1.9785   -0.2508 C.ar      1 <0>         0.3966
      9 C8         -2.5095   -2.6548   -0.2729 C.ar      1 <0>        -0.0369
     10 N2         -2.5445   -3.9659   -0.0526 N.ar      1 <0>        -0.3714
     11 C9         -1.4280   -4.6242    0.1849 C.ar      1 <0>         0.0069
     12 C10        -0.2117   -3.9566    0.2073 C.ar      1 <0>         0.1437
     13 N3         -0.1606   -2.6560   -0.0150 N.ar      1 <0>        -0.4925
     14 C11        -3.7590   -1.9133   -0.5390 C.2       1 <0>         0.5968
     15 O1         -3.7367   -0.7021   -0.6433 O.2       1 <0>        -0.5269
     16 N4         -4.9237   -2.5793   -0.6663 N.am      1 <0>        -0.6402
     17 C12        -6.0878   -1.8910   -1.0307 C.ar      1 <0>         0.0988
     18 C13        -6.0048   -0.7599   -1.8311 C.ar      1 <0>        -0.0680
     19 C14        -7.1540   -0.0823   -2.1895 C.ar      1 <0>        -0.1411
     20 C15        -8.3891   -0.5298   -1.7515 C.ar      1 <0>         0.1225
     21 C16        -8.4760   -1.6574   -0.9526 C.ar      1 <0>        -0.1693
     22 C17        -7.3290   -2.3429   -0.5961 C.ar      1 <0>         0.1108
     23 F1         -7.4138   -3.4466    0.1784 F         1 <0>        -0.1238
     24 F2         -9.5111    0.1352   -2.1038 F         1 <0>        -0.1261
     25 F3          3.3281   -0.6230   -1.9272 F         1 <0>        -0.1180
     26 O2          3.6515    1.9348   -0.9839 O.3       1 <0>        -0.2416
     27 C18         3.7394    3.2276   -0.5800 C.ar      1 <0>         0.2564
     28 C19         3.8308    3.5482    0.7743 C.ar      1 <0>        -0.1952
     29 C20         3.9192    4.8718    1.1487 C.ar      1 <0>         0.1714
     30 N5          3.9183    5.8340    0.2446 N.ar      1 <0>        -0.5080
     31 C21         3.8331    5.5730   -1.0519 C.ar      1 <0>         0.4704
     32 C22         3.7465    4.2638   -1.5063 C.ar      1 <0>        -0.2108
     33 N6          3.8355    6.6202   -1.9664 N.pl3     1 <0>        -0.8139
     34 H1         -0.6598    1.8311    0.3437 H         1 <0>         0.1456
     35 H2          1.5116    2.9665    0.1143 H         1 <0>         0.1367
     36 H3          0.9463   -1.6311   -1.5845 H         1 <0>         0.1595
     37 H4         -2.0523   -0.1054   -0.5499 H         1 <0>         0.4405
     38 H5         -1.4598   -5.6888    0.3634 H         1 <0>         0.1855
     39 H6          0.6982   -4.5044    0.4036 H         1 <0>         0.1870
     40 H7         -4.9558   -3.5354   -0.5054 H         1 <0>         0.4295
     41 H8         -5.0422   -0.4096   -2.1731 H         1 <0>         0.1580
     42 H9         -7.0890    0.7980   -2.8119 H         1 <0>         0.1499
     43 H10        -9.4403   -2.0044   -0.6118 H         1 <0>         0.1576
     44 H11         3.8319    2.7682    1.5213 H         1 <0>         0.1903
     45 H12         3.9897    5.1254    2.1961 H         1 <0>         0.2174
     46 H13         3.6815    4.0539   -2.5637 H         1 <0>         0.1892
     47 H14         3.8993    7.5365   -1.6544 H         1 <0>         0.4252
     48 H15         3.9813    6.7567    0.5372 H         1 <0>         0.4471
     49 H16         3.7735    6.4346   -2.9164 H         1 <0>         0.4430
@<TRIPOS>BOND
     1    1    6 ar
     2    1    2 ar
     3    1   34 1
     4    2    3 ar
     5    2   35 1
     6    3    4 ar
     7    3   26 1
     8    4    5 ar
     9    4   25 1
    10    5    6 ar
    11    5   36 1
    12    6    7 1
    13    7    8 1
    14    7   37 1
    15    8   13 ar
    16    8    9 ar
    17    9   10 ar
    18    9   14 1
    19   10   11 ar
    20   11   12 ar
    21   11   38 1
    22   12   13 ar
    23   12   39 1
    24   14   15 2
    25   14   16 am
    26   16   17 1
    27   16   40 1
    28   17   22 ar
    29   17   18 ar
    30   18   19 ar
    31   18   41 1
    32   19   20 ar
    33   19   42 1
    34   20   21 ar
    35   20   24 1
    36   21   22 ar
    37   21   43 1
    38   22   23 1
    39   26   27 1
    40   27   28 ar
    41   27   32 ar
    42   28   44 1
    43   28   29 ar
    44   29   45 1
    45   29   30 ar
    46   30   48 1
    47   30   31 ar
    48   31   33 1
    49   31   32 ar
    50   32   46 1
    51   33   47 1
    52   33   49 1
@<TRIPOS>MOLECULE
CHEMBL1098213
   51    55     0     0     0
SMALL
USER_CHARGES

@<TRIPOS>ATOM
      1 C1          0.0646    1.3927   -0.1413 C.ar      1 <0>        -0.1711
      2 C2          1.2738    2.0609   -0.1521 C.ar      1 <0>        -0.0421
      3 C3          2.4600    1.3480   -0.2347 C.ar      1 <0>        -0.0089
      4 C4          2.4336   -0.0396   -0.3071 C.ar      1 <0>         0.1432
      5 C5          1.2243   -0.7089   -0.2963 C.ar      1 <0>        -0.2142
      6 C6          0.0363    0.0063   -0.2132 C.ar      1 <0>         0.2729
      7 N1         -1.1886   -0.6703   -0.2018 N.pl3     1 <0>        -0.6840
      8 C7         -1.2149   -2.0544   -0.1600 C.ar      1 <0>         0.2514
      9 C8         -1.5021   -2.8015   -1.3026 C.ar      1 <0>        -0.1808
     10 C9         -1.5182   -4.1767   -1.2204 C.ar      1 <0>         0.1410
     11 N2         -1.2669   -4.7980   -0.0810 N.ar      1 <0>        -0.4815
     12 C10        -0.9902   -4.1435    1.0270 C.ar      1 <0>         0.1511
     13 C11        -0.9464   -2.7487    1.0367 C.ar      1 <0>        -0.2042
     14 C12        -0.6308   -2.0155    2.2761 C.2       1 <0>         0.5668
     15 O1         -0.5181   -0.8048    2.2544 O.2       1 <0>        -0.4893
     16 N3         -0.4673   -2.6870    3.4332 N.am      1 <0>        -0.6666
     17 C13        -0.2906   -1.9840    4.6319 C.ar      1 <0>         0.1091
     18 C14        -0.9288   -0.7665    4.8244 C.ar      1 <0>        -0.0629
     19 C15        -0.7534   -0.0746    6.0071 C.ar      1 <0>        -0.1399
     20 C16         0.0585   -0.5941    7.0015 C.ar      1 <0>         0.1188
     21 C17         0.6968   -1.8082    6.8133 C.ar      1 <0>        -0.1705
     22 C18         0.5199   -2.5075    5.6332 C.ar      1 <0>         0.1054
     23 F1          1.1377   -3.6951    5.4516 F         1 <0>        -0.1267
     24 F2          0.2283    0.0852    8.1569 F         1 <0>        -0.1282
     25 F3          3.5895   -0.7342   -0.3885 F         1 <0>        -0.1258
     26 O2          3.6498    2.0068   -0.2452 O.3       1 <0>        -0.2333
     27 C19         4.2589    2.2024   -1.4416 C.ar      1 <0>         0.2108
     28 C20         3.6365    1.8406   -2.6300 C.ar      1 <0>        -0.2847
     29 C21         4.2900    2.0565   -3.8304 C.ar      1 <0>         0.1766
     30 N4          5.4901    2.5971   -3.8763 N.ar      1 <0>        -0.5194
     31 C22         6.1355    2.9634   -2.7751 C.ar      1 <0>         0.3158
     32 C23         5.5338    2.7813   -1.5176 C.ar      1 <0>        -0.1785
     33 C24         6.4876    3.2864   -0.5292 C.2       1 <0>        -0.1743
     34 C25         7.5564    3.7286   -1.2103 C.2       1 <0>         0.0503
     35 N5          7.3649    3.5352   -2.5530 N.pl3     1 <0>        -0.5788
     36 H1          7.9997    3.7763   -3.2458 H         1 <0>         0.4227
     37 H2         -0.8587    1.9486   -0.0724 H         1 <0>         0.1393
     38 H3          1.2949    3.1392   -0.0966 H         1 <0>         0.1448
     39 H4          1.2029   -1.7872   -0.3530 H         1 <0>         0.1320
     40 H5         -2.0193   -0.1698   -0.2232 H         1 <0>         0.4204
     41 H6         -1.7098   -2.3078   -2.2404 H         1 <0>         0.1522
     42 H7         -1.7406   -4.7579   -2.1031 H         1 <0>         0.1708
     43 H8         -0.7909   -4.6912    1.9363 H         1 <0>         0.1621
     44 H9         -0.4719   -3.6569    3.4359 H         1 <0>         0.4136
     45 H10        -1.5620   -0.3601    4.0496 H         1 <0>         0.1543
     46 H11        -1.2499    0.8728    6.1564 H         1 <0>         0.1488
     47 H12         1.3298   -2.2114    7.5899 H         1 <0>         0.1550
     48 H13         2.6528    1.3951   -2.6169 H         1 <0>         0.1384
     49 H14         3.8040    1.7744   -4.7527 H         1 <0>         0.1646
     50 H15         6.3565    3.3010    0.5427 H         1 <0>         0.1527
     51 H16         8.4390    4.1639   -0.7656 H         1 <0>         0.1811
@<TRIPOS>BOND
     1    1    6 ar
     2    1    2 ar
     3    1   37 1
     4    2    3 ar
     5    2   38 1
     6    3    4 ar
     7    3   26 1
     8    4    5 ar
     9    4   25 1
    10    5    6 ar
    11    5   39 1
    12    6    7 1
    13    7    8 1
    14    7   40 1
    15    8   13 ar
    16    8    9 ar
    17    9   10 ar
    18    9   41 1
    19   10   11 ar
    20   10   42 1
    21   11   12 ar
    22   12   13 ar
    23   12   43 1
    24   13   14 1
    25   14   15 2
    26   14   16 am
    27   16   17 1
    28   16   44 1
    29   17   22 ar
    30   17   18 ar
    31   18   19 ar
    32   18   45 1
    33   19   20 ar
    34   19   46 1
    35   20   21 ar
    36   20   24 1
    37   21   22 ar
    38   21   47 1
    39   22   23 1
    40   26   27 1
    41   27   32 ar
    42   27   28 ar
    43   28   29 ar
    44   28   48 1
    45   29   30 ar
    46   29   49 1
    47   30   31 ar
    48   31   35 1
    49   31   32 ar
    50   32   33 1
    51   33   34 2
    52   33   50 1
    53   34   35 1
    54   34   51 1
    55   35   36 1
@<TRIPOS>MOLECULE
CHEMBL1098213__1
   52    56     0     0     0
SMALL
USER_CHARGES

@<TRIPOS>ATOM
      1 C1          0.0646    1.3927   -0.1413 C.ar      1 <0>        -0.1488
      2 C2          1.2738    2.0609   -0.1521 C.ar      1 <0>        -0.0419
      3 C3          2.4600    1.3480   -0.2347 C.ar      1 <0>         0.0205
      4 C4          2.4336   -0.0396   -0.3071 C.ar      1 <0>         0.1412
      5 C5          1.2243   -0.7089   -0.2963 C.ar      1 <0>        -0.2125
      6 C6          0.0363    0.0063   -0.2132 C.ar      1 <0>         0.2411
      7 N1         -1.1886   -0.6703   -0.2018 N.pl3     1 <0>        -0.6882
      8 C7         -1.2149   -2.0544   -0.1600 C.ar      1 <0>         0.3403
      9 C8         -1.5021   -2.8015   -1.3026 C.ar      1 <0>        -0.1382
     10 C9         -1.5182   -4.1767   -1.2204 C.ar      1 <0>         0.1661
     11 N2         -1.2669   -4.7980   -0.0810 N.ar      1 <0>        -0.4483
     12 C10        -0.9902   -4.1435    1.0270 C.ar      1 <0>         0.1751
     13 C11        -0.9464   -2.7487    1.0367 C.ar      1 <0>        -0.1595
     14 C12        -0.6308   -2.0155    2.2761 C.2       1 <0>         0.5587
     15 O1         -0.5181   -0.8048    2.2544 O.2       1 <0>        -0.4570
     16 N3         -0.4673   -2.6870    3.4332 N.am      1 <0>        -0.6555
     17 C13        -0.2906   -1.9840    4.6319 C.ar      1 <0>         0.0877
     18 C14        -0.9288   -0.7665    4.8244 C.ar      1 <0>        -0.0574
     19 C15        -0.7534   -0.0746    6.0071 C.ar      1 <0>        -0.1399
     20 C16         0.0585   -0.5941    7.0015 C.ar      1 <0>         0.1362
     21 C17         0.6968   -1.8082    6.8133 C.ar      1 <0>        -0.1705
     22 C18         0.5199   -2.5075    5.6332 C.ar      1 <0>         0.1160
     23 F1          1.1377   -3.6951    5.4516 F         1 <0>        -0.1262
     24 F2          0.2283    0.0852    8.1569 F         1 <0>        -0.1203
     25 F3          3.5895   -0.7342   -0.3885 F         1 <0>        -0.1195
     26 O2          3.6498    2.0068   -0.2452 O.3       1 <0>        -0.2351
     27 C19         4.2589    2.2024   -1.4416 C.ar      1 <0>         0.2062
     28 C20         3.6365    1.8406   -2.6300 C.ar      1 <0>        -0.2859
     29 C21         4.2901    2.0565   -3.8304 C.ar      1 <0>         0.1758
     30 N4          5.4901    2.5971   -3.8763 N.ar      1 <0>        -0.5127
     31 C22         6.1355    2.9634   -2.7751 C.ar      1 <0>         0.3177
     32 C23         5.5338    2.7813   -1.5176 C.ar      1 <0>        -0.1746
     33 C24         6.4876    3.2864   -0.5292 C.2       1 <0>        -0.1783
     34 C25         7.5564    3.7286   -1.2103 C.2       1 <0>         0.0586
     35 N5          7.3649    3.5352   -2.5530 N.pl3     1 <0>        -0.5764
     36 H1          7.9997    3.7763   -3.2458 H         1 <0>         0.4256
     37 H2         -0.8587    1.9486   -0.0724 H         1 <0>         0.1472
     38 H3          1.2949    3.1392   -0.0966 H         1 <0>         0.1541
     39 H4          1.2029   -1.7872   -0.3530 H         1 <0>         0.1263
     40 H5         -2.0193   -0.1698   -0.2232 H         1 <0>         0.4369
     41 H6         -1.7098   -2.3078   -2.2404 H         1 <0>         0.2009
     42 H7         -1.7406   -4.7579   -2.1031 H         1 <0>         0.2238
     43 H8         -0.7910   -4.6912    1.9363 H         1 <0>         0.2122
     44 H9         -0.4719   -3.6569    3.4359 H         1 <0>         0.4104
     45 H10        -1.5620   -0.3601    4.0496 H         1 <0>         0.1543
     46 H11        -1.2499    0.8728    6.1564 H         1 <0>         0.1541
     47 H12         1.3298   -2.2114    7.5899 H         1 <0>         0.1604
     48 H13         2.6528    1.3951   -2.6169 H         1 <0>         0.1354
     49 H14         3.8040    1.7744   -4.7527 H         1 <0>         0.1656
     50 H15         6.3565    3.3010    0.5427 H         1 <0>         0.1541
     51 H16         8.4390    4.1639   -0.7656 H         1 <0>         0.1841
     52 H17        -1.2874   -5.7676   -0.0607 H         1 <0>         0.4602
@<TRIPOS>BOND
     1    1    6 ar
     2    1    2 ar
     3    1   37 1
     4    2    3 ar
     5    2   38 1
     6    3    4 ar
     7    3   26 1
     8    4    5 ar
     9    4   25 1
    10    5    6 ar
    11    5   39 1
    12    6    7 1
    13    7    8 1
    14    7   40 1
    15    8   13 ar
    16    8    9 ar
    17    9   10 ar
    18    9   41 1
    19   10   11 ar
    20   10   42 1
    21   11   12 ar
    22   11   52 1
    23   12   13 ar
    24   12   43 1
    25   13   14 1
    26   14   15 2
    27   14   16 am
    28   16   17 1
    29   16   44 1
    30   17   22 ar
    31   17   18 ar
    32   18   19 ar
    33   18   45 1
    34   19   20 ar
    35   19   46 1
    36   20   21 ar
    37   20   24 1
    38   21   22 ar
    39   21   47 1
    40   22   23 1
    41   26   27 1
    42   27   32 ar
    43   27   28 ar
    44   28   29 ar
    45   28   48 1
    46   29   30 ar
    47   29   49 1
    48   30   31 ar
    49   31   35 1
    50   31   32 ar
    51   32   33 1
    52   33   34 2
    53   33   50 1
    54   34   35 1
    55   34   51 1
    56   35   36 1
@<TRIPOS>MOLECULE
CHEMBL429490
   67    71     0     0     0
SMALL
USER_CHARGES

@<TRIPOS>ATOM
      1 C1         -7.0268    0.0721    2.4312 C.ar      1 <0>        -0.0730
      2 C2         -7.8943    0.9642    3.0325 C.ar      1 <0>        -0.1525
      3 C3         -7.6500    2.3249    2.9561 C.ar      1 <0>         0.1061
      4 C4         -6.5365    2.7902    2.2773 C.ar      1 <0>        -0.1515
      5 C5         -5.6704    1.8963    1.6768 C.ar      1 <0>        -0.0722
      6 C6         -5.9154    0.5379    1.7537 C.ar      1 <0>        -0.0927
      7 C7         -4.9702   -0.4359    1.0985 C.3       1 <0>        -0.0948
      8 C8         -5.4147   -0.6914   -0.3185 C.2       1 <0>         0.5170
      9 O1         -6.4016   -0.1375   -0.7534 O.2       1 <0>        -0.4495
     10 N1         -4.7153   -1.5356   -1.1024 N.am      1 <0>        -0.6885
     11 C9         -5.1129   -1.7641   -2.3698 C.2       1 <0>         0.6974
     12 O2         -6.1022   -1.2088   -2.8058 O.2       1 <0>        -0.5091
     13 N2         -4.4134   -2.6084   -3.1536 N.am      1 <0>        -0.6788
     14 C10        -4.8800   -2.9216   -4.4369 C.ar      1 <0>         0.2082
     15 C11        -4.6965   -4.1989   -4.9499 C.ar      1 <0>        -0.1396
     16 C12        -5.1563   -4.5082   -6.2150 C.ar      1 <0>        -0.0588
     17 C13        -5.8016   -3.5436   -6.9742 C.ar      1 <0>         0.0265
     18 C14        -5.9864   -2.2653   -6.4622 C.ar      1 <0>         0.1377
     19 C15        -5.5309   -1.9567   -5.1937 C.ar      1 <0>        -0.1475
     20 F1         -6.6151   -1.3255   -7.2017 F         1 <0>        -0.1246
     21 O3         -6.2532   -3.8488   -8.2202 O.3       1 <0>        -0.2249
     22 C16        -5.4492   -3.5719   -9.2729 C.2       1 <0>         0.4597
     23 C17        -5.8231   -3.9587  -10.5782 C.2       1 <0>        -0.0838
     24 C18        -6.9178   -4.6174  -11.1048 C.2       1 <0>        -0.0768
     25 C19        -6.7125   -4.7055  -12.4823 C.2       1 <0>        -0.1612
     26 C20        -5.5228   -4.1124  -12.7669 C.2       1 <0>         0.0693
     27 N3         -4.9736   -3.6563  -11.6261 N.pl3     1 <0>        -0.2359
     28 N4         -3.7799   -2.9791  -11.3395 N.2       1 <0>        -0.3261
     29 C21        -3.4952   -2.6512  -10.1093 C.2       1 <0>         0.3289
     30 N5         -4.3081   -2.9317   -9.0918 N.2       1 <0>        -0.5982
     31 C22        -8.1053   -5.1408  -10.3386 C.3       1 <0>         0.1293
     32 N6         -9.0310   -4.0358  -10.0554 N.3       1 <0>        -0.6750
     33 C23       -10.2033   -4.5097   -9.3078 C.3       1 <0>         0.0751
     34 C24       -11.2550   -5.0397  -10.2867 C.3       1 <0>        -0.1398
     35 C25       -12.5041   -5.4577   -9.5078 C.3       1 <0>        -0.0065
     36 N7        -13.0451   -4.2999   -8.7857 N.4       1 <0>        -0.5055
     37 C26       -12.0693   -3.8306   -7.7947 C.3       1 <0>        -0.0024
     38 C27       -10.8035   -3.3500   -8.5077 C.3       1 <0>        -0.1545
     39 F2         -8.4976    3.1979    3.5431 F         1 <0>        -0.1368
     40 H1         -7.2148   -0.9895    2.4944 H         1 <0>         0.1318
     41 H2         -8.7627    0.6001    3.5614 H         1 <0>         0.1380
     42 H3         -6.3451    3.8514    2.2168 H         1 <0>         0.1387
     43 H4         -4.8020    2.2590    1.1470 H         1 <0>         0.1326
     44 H5         -3.9635   -0.0179    1.0938 H         1 <0>         0.1159
     45 H6         -4.9716   -1.3735    1.6544 H         1 <0>         0.1154
     46 H7         -3.9257   -1.9788   -0.7545 H         1 <0>         0.4151
     47 H8         -3.5870   -2.9991   -2.8293 H         1 <0>         0.4176
     48 H9         -4.1938   -4.9506   -4.3596 H         1 <0>         0.1474
     49 H10        -5.0129   -5.5017   -6.6134 H         1 <0>         0.1466
     50 H11        -5.6775   -0.9643   -4.7936 H         1 <0>         0.1631
     51 H12        -7.3807   -5.1639  -13.1962 H         1 <0>         0.1643
     52 H13        -5.0880   -4.0215  -13.7513 H         1 <0>         0.1863
     53 H14        -2.5707   -2.1299   -9.9095 H         1 <0>         0.2266
     54 H15        -8.6155   -5.8991  -10.9325 H         1 <0>         0.0897
     55 H16        -7.7671   -5.5808   -9.4005 H         1 <0>         0.0498
     56 H17        -8.5639   -3.2904   -9.5611 H         1 <0>         0.3536
     57 H18        -9.9037   -5.3060   -8.6265 H         1 <0>         0.0637
     58 H19       -11.5155   -4.2576  -10.9998 H         1 <0>         0.0976
     59 H20       -10.8539   -5.9011  -10.8207 H         1 <0>         0.1111
     60 H21       -13.2549   -5.8357  -10.2017 H         1 <0>         0.1350
     61 H22       -12.2426   -6.2400   -8.7952 H         1 <0>         0.1288
     62 H23       -13.2412   -3.5579   -9.4407 H         1 <0>         0.4293
     63 H24       -12.4990   -3.0074   -7.2240 H         1 <0>         0.1356
     64 H25       -11.8170   -4.6475   -7.1187 H         1 <0>         0.1303
     65 H26       -10.0795   -3.0036   -7.7701 H         1 <0>         0.1108
     66 H27       -11.0546   -2.5328   -9.1838 H         1 <0>         0.0989
     67 H28       -13.8979   -4.5658   -8.3166 H         1 <0>         0.4317
@<TRIPOS>BOND
     1    1    6 ar
     2    1    2 ar
     3    1   40 1
     4    2    3 ar
     5    2   41 1
     6    3    4 ar
     7    3   39 1
     8    4    5 ar
     9    4   42 1
    10    5    6 ar
    11    5   43 1
    12    6    7 1
    13    7    8 1
    14    7   44 1
    15    7   45 1
    16    8    9 2
    17    8   10 am
    18   10   11 am
    19   10   46 1
    20   11   12 2
    21   11   13 am
    22   13   14 1
    23   13   47 1
    24   14   19 ar
    25   14   15 ar
    26   15   16 ar
    27   15   48 1
    28   16   17 ar
    29   16   49 1
    30   17   18 ar
    31   17   21 1
    32   18   19 ar
    33   18   20 1
    34   19   50 1
    35   21   22 1
    36   22   30 2
    37   22   23 1
    38   23   27 1
    39   23   24 2
    40   24   25 1
    41   24   31 1
    42   25   26 2
    43   25   51 1
    44   26   27 1
    45   26   52 1
    46   27   28 1
    47   28   29 2
    48   29   30 1
    49   29   53 1
    50   31   32 1
    51   31   54 1
    52   31   55 1
    53   32   33 1
    54   32   56 1
    55   33   38 1
    56   33   34 1
    57   33   57 1
    58   34   35 1
    59   34   58 1
    60   34   59 1
    61   35   36 1
    62   35   60 1
    63   35   61 1
    64   36   37 1
    65   36   62 1
    66   36   67 1
    67   37   38 1
    68   37   63 1
    69   37   64 1
    70   38   65 1
    71   38   66 1
@<TRIPOS>MOLECULE
CHEMBL429490__1
   68    72     0     0     0
SMALL
USER_CHARGES

@<TRIPOS>ATOM
      1 C1         -7.0269    0.0722    2.4312 C.ar      1 <0>        -0.0730
      2 C2         -7.8944    0.9642    3.0325 C.ar      1 <0>        -0.1525
      3 C3         -7.6501    2.3250    2.9561 C.ar      1 <0>         0.1083
      4 C4         -6.5366    2.7903    2.2773 C.ar      1 <0>        -0.1513
      5 C5         -5.6705    1.8963    1.6768 C.ar      1 <0>        -0.0720
      6 C6         -5.9155    0.5379    1.7537 C.ar      1 <0>        -0.0955
      7 C7         -4.9702   -0.4359    1.0985 C.3       1 <0>        -0.0944
      8 C8         -5.4148   -0.6913   -0.3186 C.2       1 <0>         0.5182
      9 O1         -6.4016   -0.1374   -0.7535 O.2       1 <0>        -0.4486
     10 N1         -4.7153   -1.5356   -1.1024 N.am      1 <0>        -0.6876
     11 C9         -5.1129   -1.7641   -2.3698 C.2       1 <0>         0.6998
     12 O2         -6.1023   -1.2087   -2.8058 O.2       1 <0>        -0.5107
     13 N2         -4.4135   -2.6083   -3.1537 N.am      1 <0>        -0.6806
     14 C10        -4.8800   -2.9216   -4.4369 C.ar      1 <0>         0.2244
     15 C11        -4.6965   -4.1988   -4.9499 C.ar      1 <0>        -0.1389
     16 C12        -5.1563   -4.5081   -6.2150 C.ar      1 <0>        -0.0529
     17 C13        -5.8016   -3.5436   -6.9742 C.ar      1 <0>         0.0077
     18 C14        -5.9864   -2.2653   -6.4622 C.ar      1 <0>         0.1390
     19 C15        -5.5309   -1.9567   -5.1937 C.ar      1 <0>        -0.1473
     20 F1         -6.6151   -1.3256   -7.2017 F         1 <0>        -0.1287
     21 O3         -6.2532   -3.8488   -8.2202 O.3       1 <0>        -0.2384
     22 C16        -5.4492   -3.5719   -9.2729 C.2       1 <0>         0.4356
     23 C17        -5.8231   -3.9587  -10.5782 C.2       1 <0>        -0.0473
     24 C18        -6.9178   -4.6174  -11.1048 C.2       1 <0>        -0.1816
     25 C19        -6.7125   -4.7055  -12.4823 C.2       1 <0>        -0.1359
     26 C20        -5.5228   -4.1124  -12.7669 C.2       1 <0>         0.0728
     27 N3         -4.9736   -3.6563  -11.6261 N.pl3     1 <0>        -0.2159
     28 N4         -3.7799   -2.9791  -11.3395 N.2       1 <0>        -0.3064
     29 C21        -3.4952   -2.6512  -10.1093 C.2       1 <0>         0.3388
     30 N5         -4.3081   -2.9317   -9.0918 N.2       1 <0>        -0.5644
     31 C22        -8.1053   -5.1408  -10.3386 C.3       1 <0>         0.0777
     32 N6         -9.0310   -4.0358  -10.0554 N.4       1 <0>        -0.5079
     33 C23       -10.1885   -4.5459   -9.3085 C.3       1 <0>         0.0131
     34 C24       -10.9832   -5.5115  -10.1924 C.3       1 <0>        -0.1730
     35 C25       -12.2298   -5.9772   -9.4370 C.3       1 <0>        -0.0018
     36 N7        -13.0652   -4.8176   -9.1022 N.4       1 <0>        -0.5113
     37 C26       -12.3350   -3.9225   -8.1967 C.3       1 <0>        -0.0008
     38 C27       -11.0924   -3.3777   -8.9044 C.3       1 <0>        -0.1744
     39 F2         -8.4977    3.1980    3.5431 F         1 <0>        -0.1353
     40 H1         -7.2148   -0.9895    2.4944 H         1 <0>         0.1315
     41 H2         -8.7628    0.6001    3.5614 H         1 <0>         0.1387
     42 H3         -6.3453    3.8515    2.2167 H         1 <0>         0.1395
     43 H4         -4.8022    2.2591    1.1469 H         1 <0>         0.1325
     44 H5         -3.9636   -0.0178    1.0937 H         1 <0>         0.1170
     45 H6         -4.9716   -1.3735    1.6544 H         1 <0>         0.1165
     46 H7         -3.9258   -1.9788   -0.7545 H         1 <0>         0.4170
     47 H8         -3.5870   -2.9991   -2.8293 H         1 <0>         0.4209
     48 H9         -4.1937   -4.9505   -4.3596 H         1 <0>         0.1521
     49 H10        -5.0128   -5.5017   -6.6134 H         1 <0>         0.1484
     50 H11        -5.6775   -0.9643   -4.7936 H         1 <0>         0.1671
     51 H12        -7.3807   -5.1639  -13.1962 H         1 <0>         0.1755
     52 H13        -5.0880   -4.0215  -13.7513 H         1 <0>         0.1980
     53 H14        -2.5707   -2.1299   -9.9095 H         1 <0>         0.2390
     54 H15        -8.6155   -5.8991  -10.9325 H         1 <0>         0.1469
     55 H16        -7.7671   -5.5808   -9.4005 H         1 <0>         0.1434
     56 H17        -8.5587   -3.3339   -9.5056 H         1 <0>         0.4358
     57 H18        -9.8448   -5.0669   -8.4149 H         1 <0>         0.1584
     58 H19       -11.2819   -5.0035  -11.1094 H         1 <0>         0.1151
     59 H20       -10.3634   -6.3737  -10.4384 H         1 <0>         0.1385
     60 H21       -12.7979   -6.6650  -10.0634 H         1 <0>         0.1548
     61 H22       -11.9301   -6.4852   -8.5204 H         1 <0>         0.1443
     62 H23       -13.3018   -4.3197   -9.9473 H         1 <0>         0.4333
     63 H24       -12.9807   -3.0933   -7.9075 H         1 <0>         0.1549
     64 H25       -12.0330   -4.4743   -7.3066 H         1 <0>         0.1448
     65 H26       -10.5507   -2.7147   -8.2298 H         1 <0>         0.1378
     66 H27       -11.3934   -2.8255   -9.7947 H         1 <0>         0.1140
     67 H28       -13.9114   -5.1328   -8.6519 H         1 <0>         0.4474
     68 H29        -9.3440   -3.6284  -10.9238 H         1 <0>         0.4301
@<TRIPOS>BOND
     1    1    6 ar
     2    1    2 ar
     3    1   40 1
     4    2    3 ar
     5    2   41 1
     6    3    4 ar
     7    3   39 1
     8    4    5 ar
     9    4   42 1
    10    5    6 ar
    11    5   43 1
    12    6    7 1
    13    7    8 1
    14    7   44 1
    15    7   45 1
    16    8    9 2
    17    8   10 am
    18   10   11 am
    19   10   46 1
    20   11   12 2
    21   11   13 am
    22   13   14 1
    23   13   47 1
    24   14   19 ar
    25   14   15 ar
    26   15   16 ar
    27   15   48 1
    28   16   17 ar
    29   16   49 1
    30   17   18 ar
    31   17   21 1
    32   18   19 ar
    33   18   20 1
    34   19   50 1
    35   21   22 1
    36   22   30 2
    37   22   23 1
    38   23   27 1
    39   23   24 2
    40   24   25 1
    41   24   31 1
    42   25   26 2
    43   25   51 1
    44   26   27 1
    45   26   52 1
    46   27   28 1
    47   28   29 2
    48   29   30 1
    49   29   53 1
    50   31   32 1
    51   31   54 1
    52   31   55 1
    53   32   33 1
    54   32   56 1
    55   32   68 1
    56   33   38 1
    57   33   34 1
    58   33   57 1
    59   34   35 1
    60   34   58 1
    61   34   59 1
    62   35   36 1
    63   35   60 1
    64   35   61 1
    65   36   37 1
    66   36   62 1
    67   36   67 1
    68   37   38 1
    69   37   63 1
    70   37   64 1
    71   38   65 1
    72   38   66 1
@<TRIPOS>MOLECULE
CHEMBL253656
   62    66     0     0     0
SMALL
USER_CHARGES

@<TRIPOS>ATOM
      1 C1         -4.1100   -6.0859    2.5983 C.ar      1 <0>        -0.0725
      2 C2         -4.5831   -7.1023    3.4063 C.ar      1 <0>        -0.1520
      3 C3         -5.8311   -6.9933    3.9960 C.ar      1 <0>         0.1046
      4 C4         -6.6037   -5.8657    3.7754 C.ar      1 <0>        -0.1520
      5 C5         -6.1285   -4.8505    2.9670 C.ar      1 <0>        -0.0727
      6 C6         -4.8823   -4.9605    2.3787 C.ar      1 <0>        -0.0910
      7 C7         -4.3653   -3.8528    1.4974 C.3       1 <0>        -0.0944
      8 C8         -4.7824   -4.1087    0.0721 C.2       1 <0>         0.5150
      9 O1         -5.4349   -5.0933   -0.2011 O.2       1 <0>        -0.4482
     10 N1         -4.4299   -3.2431   -0.8990 N.am      1 <0>        -0.6889
     11 C9         -4.8029   -3.4720   -2.1737 C.2       1 <0>         0.6940
     12 O2         -5.4571   -4.4592   -2.4476 O.2       1 <0>        -0.5044
     13 N2         -4.4505   -2.6064   -3.1448 N.am      1 <0>        -0.6774
     14 C10        -4.7647   -2.8868   -4.4810 C.ar      1 <0>         0.2009
     15 C11        -3.8877   -2.5182   -5.4926 C.ar      1 <0>        -0.1382
     16 C12        -4.1970   -2.7944   -6.8099 C.ar      1 <0>        -0.0570
     17 C13        -5.3835   -3.4400   -7.1238 C.ar      1 <0>         0.0304
     18 C14        -6.2618   -3.8099   -6.1129 C.ar      1 <0>         0.1335
     19 C15        -5.9501   -3.5383   -4.7934 C.ar      1 <0>        -0.1458
     20 F1         -7.4177   -4.4389   -6.4185 F         1 <0>        -0.1239
     21 O3         -5.6876   -3.7108   -8.4215 O.3       1 <0>        -0.2139
     22 C16        -5.5302   -4.9816   -8.8590 C.2       1 <0>         0.4621
     23 C17        -5.9318   -5.3426  -10.1636 C.2       1 <0>        -0.0891
     24 C18        -6.5046   -4.6518  -11.2145 C.2       1 <0>        -0.0589
     25 C19        -6.6666   -5.5644  -12.2576 C.2       1 <0>        -0.1647
     26 C20        -6.2005   -6.7697  -11.8354 C.2       1 <0>         0.0673
     27 N3         -5.7531   -6.6513  -10.5718 N.pl3     1 <0>        -0.2390
     28 N4         -5.1810   -7.5571   -9.6674 N.2       1 <0>        -0.3324
     29 C21        -4.8325   -7.1569   -8.4757 C.2       1 <0>         0.3276
     30 N5         -4.9941   -5.8975   -8.0726 N.2       1 <0>        -0.6025
     31 C22        -6.8822   -3.1930  -11.2307 C.3       1 <0>         0.1203
     32 N6         -5.6843   -2.3798  -11.4788 N.3       1 <0>        -0.5286
     33 C23        -4.7396   -2.4772  -10.3566 C.3       1 <0>         0.0173
     34 C24        -3.4833   -1.6650  -10.6821 C.3       1 <0>         0.0629
     35 O4         -3.8552   -0.3124  -10.9608 O.3       1 <0>        -0.3839
     36 C25        -4.7741   -0.1805  -12.0488 C.3       1 <0>         0.0638
     37 C26        -6.0434   -0.9778  -11.7371 C.3       1 <0>         0.0176
     38 F2         -6.2947   -7.9865    4.7858 F         1 <0>        -0.1379
     39 H1         -3.1348   -6.1687    2.1418 H         1 <0>         0.1324
     40 H2         -3.9797   -7.9816    3.5774 H         1 <0>         0.1378
     41 H3         -7.5774   -5.7797    4.2346 H         1 <0>         0.1378
     42 H4         -6.7312   -3.9710    2.7944 H         1 <0>         0.1324
     43 H5         -4.7776   -2.9005    1.8312 H         1 <0>         0.1146
     44 H6         -3.2775   -3.8186    1.5571 H         1 <0>         0.1146
     45 H7         -3.9079   -2.4553   -0.6804 H         1 <0>         0.4134
     46 H8         -3.9793   -1.7893   -2.9185 H         1 <0>         0.4155
     47 H9         -2.9636   -2.0151   -5.2491 H         1 <0>         0.1463
     48 H10        -3.5146   -2.5071   -7.5961 H         1 <0>         0.1467
     49 H11        -6.6306   -3.8288   -4.0067 H         1 <0>         0.1608
     50 H12        -7.0879   -5.3509  -13.2288 H         1 <0>         0.1644
     51 H13        -6.1905   -7.6772  -12.4208 H         1 <0>         0.1842
     52 H14        -4.3934   -7.8702   -7.7940 H         1 <0>         0.2237
     53 H15        -7.6120   -3.0154  -12.0206 H         1 <0>         0.0938
     54 H16        -7.3145   -2.9189  -10.2683 H         1 <0>         0.0510
     55 H17        -5.2049   -2.0818   -9.4537 H         1 <0>         0.0597
     56 H18        -4.4675   -3.5210  -10.1995 H         1 <0>         0.0767
     57 H19        -2.8044   -1.6874   -9.8297 H         1 <0>         0.0937
     58 H20        -2.9886   -2.0934  -11.5537 H         1 <0>         0.0582
     59 H21        -5.0287    0.8706  -12.1848 H         1 <0>         0.0994
     60 H22        -4.3169   -0.5658  -12.9601 H         1 <0>         0.0604
     61 H23        -6.7232   -0.9270  -12.5877 H         1 <0>         0.0890
     62 H24        -6.5296   -0.5584  -10.8563 H         1 <0>         0.0452
@<TRIPOS>BOND
     1    1    6 ar
     2    1    2 ar
     3    1   39 1
     4    2    3 ar
     5    2   40 1
     6    3    4 ar
     7    3   38 1
     8    4    5 ar
     9    4   41 1
    10    5    6 ar
    11    5   42 1
    12    6    7 1
    13    7    8 1
    14    7   43 1
    15    7   44 1
    16    8    9 2
    17    8   10 am
    18   10   11 am
    19   10   45 1
    20   11   12 2
    21   11   13 am
    22   13   14 1
    23   13   46 1
    24   14   19 ar
    25   14   15 ar
    26   15   16 ar
    27   15   47 1
    28   16   17 ar
    29   16   48 1
    30   17   18 ar
    31   17   21 1
    32   18   19 ar
    33   18   20 1
    34   19   49 1
    35   21   22 1
    36   22   30 2
    37   22   23 1
    38   23   27 1
    39   23   24 2
    40   24   25 1
    41   24   31 1
    42   25   26 2
    43   25   50 1
    44   26   27 1
    45   26   51 1
    46   27   28 1
    47   28   29 2
    48   29   30 1
    49   29   52 1
    50   31   32 1
    51   31   53 1
    52   31   54 1
    53   32   37 1
    54   32   33 1
    55   33   34 1
    56   33   55 1
    57   33   56 1
    58   34   35 1
    59   34   57 1
    60   34   58 1
    61   35   36 1
    62   36   37 1
    63   36   59 1
    64   36   60 1
    65   37   61 1
    66   37   62 1
@<TRIPOS>MOLECULE
CHEMBL253656__1
   63    67     0     0     0
SMALL
USER_CHARGES

@<TRIPOS>ATOM
      1 C1         -4.6133   -7.9816    2.3879 C.ar      1 <0>        -0.0726
      2 C2         -5.1188   -9.0924    3.0364 C.ar      1 <0>        -0.1520
      3 C3         -6.3807   -9.0472    3.6044 C.ar      1 <0>         0.1073
      4 C4         -7.1347   -7.8888    3.5219 C.ar      1 <0>        -0.1516
      5 C5         -6.6272   -6.7793    2.8730 C.ar      1 <0>        -0.0723
      6 C6         -5.3670   -6.8256    2.3063 C.ar      1 <0>        -0.0946
      7 C7         -4.8147   -5.6150    1.5989 C.3       1 <0>        -0.0935
      8 C8         -5.1965   -5.6667    0.1420 C.2       1 <0>         0.5157
      9 O1         -5.8523   -6.5949   -0.2802 O.2       1 <0>        -0.4463
     10 N1         -4.8088   -4.6812   -0.6916 N.am      1 <0>        -0.6879
     11 C9         -5.1503   -4.7274   -1.9946 C.2       1 <0>         0.6967
     12 O2         -5.8078   -5.6580   -2.4179 O.2       1 <0>        -0.5052
     13 N2         -4.7627   -3.7419   -2.8282 N.am      1 <0>        -0.6799
     14 C10        -5.0321   -3.8380   -4.1996 C.ar      1 <0>         0.2199
     15 C11        -4.1196   -3.3449   -5.1228 C.ar      1 <0>        -0.1402
     16 C12        -4.3847   -3.4394   -6.4749 C.ar      1 <0>        -0.0607
     17 C13        -5.5625   -4.0269   -6.9120 C.ar      1 <0>         0.0111
     18 C14        -6.4763   -4.5213   -5.9897 C.ar      1 <0>         0.1485
     19 C15        -6.2089   -4.4315   -4.6360 C.ar      1 <0>        -0.1467
     20 F1         -7.6237   -5.0936   -6.4153 F         1 <0>        -0.1197
     21 O3         -5.8231   -4.1188   -8.2436 O.3       1 <0>        -0.2356
     22 C16        -6.5555   -3.1358   -8.8169 C.2       1 <0>         0.4417
     23 C17        -6.7713   -3.1272  -10.2122 C.2       1 <0>        -0.0583
     24 C18        -6.3819   -3.9571  -11.2462 C.2       1 <0>        -0.1600
     25 C19        -6.9131   -3.4185  -12.4188 C.2       1 <0>        -0.1404
     26 C20        -7.6023   -2.2943  -12.0883 C.2       1 <0>         0.0731
     27 N3         -7.5257   -2.1054  -10.7580 N.pl3     1 <0>        -0.2199
     28 N4         -8.0397   -1.1258   -9.8967 N.2       1 <0>        -0.3123
     29 C21        -7.8016   -1.1936   -8.6159 C.2       1 <0>         0.3360
     30 N5         -7.0813   -2.1761   -8.0770 N.2       1 <0>        -0.5720
     31 C22        -5.5438   -5.2042  -11.1299 C.3       1 <0>         0.0760
     32 N6         -4.1432   -4.8323  -10.8894 N.4       1 <0>        -0.3852
     33 C23        -3.6091   -4.1434  -12.0723 C.3       1 <0>        -0.0453
     34 C24        -2.1498   -3.7568  -11.8191 C.3       1 <0>         0.0371
     35 O4         -1.3968   -4.9333  -11.5117 O.3       1 <0>        -0.3555
     36 C25        -1.8934   -5.6531  -10.3798 C.3       1 <0>         0.0368
     37 C26        -3.3522   -6.0432  -10.6303 C.3       1 <0>        -0.0451
     38 F2         -6.8761  -10.1326    4.2381 F         1 <0>        -0.1362
     39 H1         -3.6272   -8.0152    1.9487 H         1 <0>         0.1319
     40 H2         -4.5299   -9.9955    3.0998 H         1 <0>         0.1386
     41 H3         -8.1193   -7.8525    3.9643 H         1 <0>         0.1388
     42 H4         -7.2153   -5.8758    2.8082 H         1 <0>         0.1322
     43 H5         -5.2251   -4.7117    2.0502 H         1 <0>         0.1157
     44 H6         -3.7285   -5.6052    1.6898 H         1 <0>         0.1155
     45 H7         -4.2841   -3.9386   -0.3538 H         1 <0>         0.4153
     46 H8         -4.2972   -2.9660   -2.4786 H         1 <0>         0.4186
     47 H9         -3.2023   -2.8869   -4.7834 H         1 <0>         0.1501
     48 H10        -3.6747   -3.0553   -7.1923 H         1 <0>         0.1425
     49 H11        -6.9170   -4.8189   -3.9185 H         1 <0>         0.1669
     50 H12        -6.7971   -3.8233  -13.4133 H         1 <0>         0.1762
     51 H13        -8.1278   -1.6551  -12.7823 H         1 <0>         0.1965
     52 H14        -8.2066   -0.4292   -7.9693 H         1 <0>         0.2357
     53 H15        -5.9068   -5.8097  -10.2994 H         1 <0>         0.1406
     54 H16        -5.6140   -5.7767  -12.0548 H         1 <0>         0.1463
     55 H17        -3.6650   -4.8067  -12.9354 H         1 <0>         0.1427
     56 H18        -4.1951   -3.2448  -12.2653 H         1 <0>         0.1405
     57 H19        -1.7385   -3.2840  -12.7109 H         1 <0>         0.1421
     58 H20        -2.0975   -3.0618  -10.9809 H         1 <0>         0.0763
     59 H21        -1.2966   -6.5527  -10.2300 H         1 <0>         0.1432
     60 H22        -1.8324   -5.0230   -9.4924 H         1 <0>         0.0787
     61 H23        -3.7476   -6.5550   -9.7529 H         1 <0>         0.1440
     62 H24        -3.4082   -6.7058  -11.4940 H         1 <0>         0.1428
     63 H25        -4.0905   -4.2186  -10.0901 H         1 <0>         0.4176
@<TRIPOS>BOND
     1    1    6 ar
     2    1    2 ar
     3    1   39 1
     4    2    3 ar
     5    2   40 1
     6    3    4 ar
     7    3   38 1
     8    4    5 ar
     9    4   41 1
    10    5    6 ar
    11    5   42 1
    12    6    7 1
    13    7    8 1
    14    7   43 1
    15    7   44 1
    16    8    9 2
    17    8   10 am
    18   10   11 am
    19   10   45 1
    20   11   12 2
    21   11   13 am
    22   13   14 1
    23   13   46 1
    24   14   19 ar
    25   14   15 ar
    26   15   16 ar
    27   15   47 1
    28   16   17 ar
    29   16   48 1
    30   17   18 ar
    31   17   21 1
    32   18   19 ar
    33   18   20 1
    34   19   49 1
    35   21   22 1
    36   22   30 2
    37   22   23 1
    38   23   27 1
    39   23   24 2
    40   24   25 1
    41   24   31 1
    42   25   26 2
    43   25   50 1
    44   26   27 1
    45   26   51 1
    46   27   28 1
    47   28   29 2
    48   29   30 1
    49   29   52 1
    50   31   32 1
    51   31   53 1
    52   31   54 1
    53   32   37 1
    54   32   33 1
    55   32   63 1
    56   33   34 1
    57   33   55 1
    58   33   56 1
    59   34   35 1
    60   34   57 1
    61   34   58 1
    62   35   36 1
    63   36   37 1
    64   36   59 1
    65   36   60 1
    66   37   61 1
    67   37   62 1
@<TRIPOS>MOLECULE
CHEMBL404639
   55    59     0     0     0
SMALL
USER_CHARGES

@<TRIPOS>ATOM
      1 C1         10.8468    0.9822   -3.5872 C.ar      1 <0>        -0.1129
      2 C2         10.7651   -0.3968   -3.5378 C.ar      1 <0>        -0.1181
      3 C3          9.7513   -1.0040   -2.8205 C.ar      1 <0>        -0.1014
      4 C4          8.8195   -0.2320   -2.1522 C.ar      1 <0>        -0.0803
      5 C5          8.9017    1.1470   -2.2008 C.ar      1 <0>        -0.1014
      6 C6          9.9147    1.7541   -2.9193 C.ar      1 <0>        -0.1181
      7 C7          7.7137   -0.8939   -1.3711 C.3       1 <0>        -0.0930
      8 C8          8.1683   -1.1232    0.0473 C.2       1 <0>         0.4822
      9 O1          9.2804   -0.7828    0.3900 O.2       1 <0>        -0.3884
     10 N1          7.3387   -1.7067    0.9349 N.am      1 <0>        -0.6409
     11 C9          7.7453   -1.9118    2.2034 C.2       1 <0>         0.5053
     12 S1          9.3156   -1.4312    2.6872 S.2       1 <0>        -0.4713
     13 N2          6.9157   -2.4952    3.0909 N.pl3     1 <0>        -0.6249
     14 C10         7.3760   -2.8147    4.3745 C.ar      1 <0>         0.1650
     15 C11         6.5607   -2.6001    5.4780 C.ar      1 <0>        -0.1174
     16 C12         7.0142   -2.9150    6.7439 C.ar      1 <0>        -0.0794
     17 C13         8.2840   -3.4459    6.9144 C.ar      1 <0>         0.0449
     18 C14         9.1010   -3.6612    5.8114 C.ar      1 <0>         0.1095
     19 C15         8.6453   -3.3515    4.5433 C.ar      1 <0>        -0.1024
     20 F1         10.3381   -4.1780    5.9775 F         1 <0>        -0.1183
     21 O2          8.7298   -3.7552    8.1614 O.3       1 <0>        -0.2378
     22 C16         9.4950   -2.8405    8.8098 C.ar      1 <0>         0.2090
     23 C17         9.8935   -1.6628    8.1817 C.ar      1 <0>        -0.2289
     24 C18        10.6736   -0.7672    8.8949 C.ar      1 <0>         0.1598
     25 N3         11.0457   -0.9897   10.1294 N.ar      1 <0>        -0.4719
     26 C19        10.6991   -2.1088   10.8062 C.ar      1 <0>         0.1520
     27 C20         9.8988   -3.0462   10.1174 C.ar      1 <0>        -0.2015
     28 S2          9.6531   -4.3382   11.3080 S.3       1 <0>         0.1137
     29 C21        10.5821   -3.6260   12.6552 C.2       1 <0>        -0.0728
     30 C22        11.0348   -2.4601   12.1271 C.2       1 <0>        -0.1007
     31 C23        10.8126   -4.1760   14.0079 C.ar      1 <0>         0.1992
     32 C24        10.2698   -5.4142   14.3536 C.ar      1 <0>        -0.1512
     33 C25        10.4946   -5.9153   15.6234 C.ar      1 <0>        -0.0685
     34 C26        11.2550   -5.1628   16.5081 C.ar      1 <0>        -0.1650
     35 C27        11.7629   -3.9433   16.0996 C.ar      1 <0>         0.1101
     36 N4         11.5393   -3.4904   14.8829 N.ar      1 <0>        -0.4674
     37 H1         11.6415    1.4565   -4.1439 H         1 <0>         0.1233
     38 H2         11.4932   -0.9999   -4.0599 H         1 <0>         0.1238
     39 H3          9.6871   -2.0814   -2.7825 H         1 <0>         0.1202
     40 H4          8.1734    1.7501   -1.6790 H         1 <0>         0.1202
     41 H5          9.9786    2.8316   -2.9576 H         1 <0>         0.1239
     42 H6          6.8336   -0.2508   -1.3710 H         1 <0>         0.1093
     43 H7          7.4651   -1.8498   -1.8320 H         1 <0>         0.1092
     44 H8          6.4490   -1.9790    0.6607 H         1 <0>         0.4126
     45 H9          5.9998   -2.6939    2.8407 H         1 <0>         0.4132
     46 H10         5.5718   -2.1864    5.3463 H         1 <0>         0.1454
     47 H11         6.3797   -2.7475    7.6017 H         1 <0>         0.1519
     48 H12         9.2781   -3.5227    3.6850 H         1 <0>         0.1637
     49 H13         9.6017   -1.4531    7.1632 H         1 <0>         0.1515
     50 H14        10.9862    0.1481    8.4143 H         1 <0>         0.1693
     51 H15        11.6413   -1.7959   12.7250 H         1 <0>         0.1588
     52 H16         9.6824   -5.9731   13.6402 H         1 <0>         0.1380
     53 H17        10.0871   -6.8705   15.9199 H         1 <0>         0.1426
     54 H18        11.4479   -5.5265   17.5066 H         1 <0>         0.1417
     55 H19        12.3548   -3.3561   16.7860 H         1 <0>         0.1647
@<TRIPOS>BOND
     1    1    6 ar
     2    1    2 ar
     3    1   37 1
     4    2    3 ar
     5    2   38 1
     6    3    4 ar
     7    3   39 1
     8    4    5 ar
     9    4    7 1
    10    5    6 ar
    11    5   40 1
    12    6   41 1
    13    7    8 1
    14    7   42 1
    15    7   43 1
    16    8    9 2
    17    8   10 am
    18   10   11 1
    19   10   44 1
    20   11   12 2
    21   11   13 1
    22   13   14 1
    23   13   45 1
    24   14   19 ar
    25   14   15 ar
    26   15   16 ar
    27   15   46 1
    28   16   17 ar
    29   16   47 1
    30   17   18 ar
    31   17   21 1
    32   18   19 ar
    33   18   20 1
    34   19   48 1
    35   21   22 1
    36   22   27 ar
    37   22   23 ar
    38   23   24 ar
    39   23   49 1
    40   24   25 ar
    41   24   50 1
    42   25   26 ar
    43   26   30 1
    44   26   27 ar
    45   27   28 1
    46   28   29 1
    47   29   30 2
    48   29   31 1
    49   30   51 1
    50   31   36 ar
    51   31   32 ar
    52   32   33 ar
    53   32   52 1
    54   33   34 ar
    55   33   53 1
    56   34   35 ar
    57   34   54 1
    58   35   36 ar
    59   35   55 1
@<TRIPOS>MOLECULE
CHEMBL428944
   64    68     0     0     0
SMALL
USER_CHARGES

@<TRIPOS>ATOM
      1 C1         -7.8037    0.8422    2.1317 C.ar      1 <0>        -0.0729
      2 C2         -8.7357    1.7243    2.6448 C.ar      1 <0>        -0.1523
      3 C3         -8.5510    3.0886    2.4981 C.ar      1 <0>         0.1064
      4 C4         -7.4325    3.5677    1.8374 C.ar      1 <0>        -0.1514
      5 C5         -6.5018    2.6837    1.3251 C.ar      1 <0>        -0.0722
      6 C6         -6.6873    1.3217    1.4722 C.ar      1 <0>        -0.0932
      7 C7         -5.6717    0.3589    0.9132 C.3       1 <0>        -0.0940
      8 C8         -6.0440    0.0020   -0.5028 C.2       1 <0>         0.5155
      9 O1         -7.0360    0.4820   -1.0081 O.2       1 <0>        -0.4475
     10 N1         -5.2742   -0.8508   -1.2075 N.am      1 <0>        -0.6888
     11 C9         -5.6073   -1.1700   -2.4739 C.2       1 <0>         0.6956
     12 O2         -6.6018   -0.6888   -2.9804 O.2       1 <0>        -0.5061
     13 N2         -4.8375   -2.0229   -3.1785 N.am      1 <0>        -0.6793
     14 C10        -5.2352   -2.4315   -4.4582 C.ar      1 <0>         0.2069
     15 C11        -4.9718   -3.7257   -4.8870 C.ar      1 <0>        -0.1437
     16 C12        -5.3637   -4.1291   -6.1483 C.ar      1 <0>        -0.0585
     17 C13        -6.0207   -3.2421   -6.9879 C.ar      1 <0>         0.0287
     18 C14        -6.2855   -1.9471   -6.5603 C.ar      1 <0>         0.1392
     19 C15        -5.8980   -1.5444   -5.2955 C.ar      1 <0>        -0.1474
     20 F1         -6.9256   -1.0829   -7.3781 F         1 <0>        -0.1223
     21 O3         -6.4055   -3.6400   -8.2302 O.3       1 <0>        -0.2087
     22 C16        -5.5726   -3.3841   -9.2656 C.2       1 <0>         0.4689
     23 C17        -5.8735   -3.8627  -10.5594 C.2       1 <0>        -0.0650
     24 C18        -6.9132   -4.6038  -11.0880 C.2       1 <0>        -0.0808
     25 C19        -6.6471   -4.7600  -12.4489 C.2       1 <0>        -0.1753
     26 C20        -5.4760   -4.1260  -12.7219 C.2       1 <0>         0.0683
     27 N3         -4.9966   -3.5789  -11.5897 N.pl3     1 <0>        -0.2359
     28 N4         -3.8490   -2.8282  -11.2977 N.2       1 <0>        -0.3308
     29 C21        -3.6313   -2.4169  -10.0790 C.2       1 <0>         0.3321
     30 N5         -4.4714   -2.6789   -9.0788 N.2       1 <0>        -0.6023
     31 C22        -8.1053   -5.1408  -10.3386 C.3       1 <0>         0.1163
     32 N6         -7.6934   -6.2908   -9.5226 N.3       1 <0>        -0.4894
     33 C23        -7.3746   -7.4632  -10.3775 C.3       1 <0>         0.0255
     34 C24        -7.4959   -8.6780   -9.4327 C.3       1 <0>        -0.1423
     35 C25        -8.4398   -8.2152   -8.3038 C.3       1 <0>         0.0196
     36 H1         -7.9264   -8.2502   -7.3429 H         1 <0>         0.1553
     37 C26        -8.8095   -6.7596   -8.6615 C.3       1 <0>         0.0127
     38 N7         -9.6440   -9.0558   -8.2688 N.4       1 <0>        -0.6341
     39 F2         -9.4617    3.9518    2.9989 F         1 <0>        -0.1367
     40 H2         -7.9453   -0.2219    2.2498 H         1 <0>         0.1316
     41 H3         -9.6080    1.3494    3.1596 H         1 <0>         0.1381
     42 H4         -7.2876    4.6317    1.7221 H         1 <0>         0.1387
     43 H5         -5.6295    3.0572    0.8094 H         1 <0>         0.1325
     44 H6         -4.6859    0.8240    0.9234 H         1 <0>         0.1154
     45 H7         -5.6534   -0.5445    1.5228 H         1 <0>         0.1147
     46 H8         -4.4805   -1.2349   -0.8032 H         1 <0>         0.4143
     47 H9         -4.0081   -2.3537   -2.7997 H         1 <0>         0.4164
     48 H10        -4.4598   -4.4170   -4.2339 H         1 <0>         0.1448
     49 H11        -5.1580   -5.1357   -6.4812 H         1 <0>         0.1446
     50 H12        -6.1067   -0.5390   -4.9610 H         1 <0>         0.1627
     51 H13        -7.2629   -5.2909  -13.1598 H         1 <0>         0.1610
     52 H14        -5.0056   -4.0700  -13.6925 H         1 <0>         0.1853
     53 H15        -2.7415   -1.8400   -9.8747 H         1 <0>         0.2261
     54 H16        -8.5085   -4.3619   -9.6914 H         1 <0>         0.0965
     55 H17        -8.8699   -5.4546  -11.0491 H         1 <0>         0.0605
     56 H18        -8.0916   -7.5440  -11.1946 H         1 <0>         0.0603
     57 H19        -6.3598   -7.3847  -10.7675 H         1 <0>         0.1019
     58 H20        -7.9269   -9.5278   -9.9620 H         1 <0>         0.0922
     59 H21        -6.5192   -8.9402   -9.0259 H         1 <0>         0.1105
     60 H22        -8.8750   -6.1514   -7.7594 H         1 <0>         0.1162
     61 H23        -9.7510   -6.7304   -9.2100 H         1 <0>         0.0663
     62 H24        -9.3815  -10.0117   -8.0804 H         1 <0>         0.4385
     63 H25       -10.2625   -8.7274   -7.5424 H         1 <0>         0.4380
     64 H26       -10.1151   -9.0058   -9.1597 H         1 <0>         0.4325
@<TRIPOS>BOND
     1    1    6 ar
     2    1    2 ar
     3    1   40 1
     4    2    3 ar
     5    2   41 1
     6    3    4 ar
     7    3   39 1
     8    4    5 ar
     9    4   42 1
    10    5    6 ar
    11    5   43 1
    12    6    7 1
    13    7    8 1
    14    7   44 1
    15    7   45 1
    16    8    9 2
    17    8   10 am
    18   10   11 am
    19   10   46 1
    20   11   12 2
    21   11   13 am
    22   13   14 1
    23   13   47 1
    24   14   19 ar
    25   14   15 ar
    26   15   16 ar
    27   15   48 1
    28   16   17 ar
    29   16   49 1
    30   17   18 ar
    31   17   21 1
    32   18   19 ar
    33   18   20 1
    34   19   50 1
    35   21   22 1
    36   22   30 2
    37   22   23 1
    38   23   27 1
    39   23   24 2
    40   24   25 1
    41   24   31 1
    42   25   26 2
    43   25   51 1
    44   26   27 1
    45   26   52 1
    46   27   28 1
    47   28   29 2
    48   29   30 1
    49   29   53 1
    50   31   32 1
    51   31   54 1
    52   31   55 1
    53   32   37 1
    54   32   33 1
    55   33   34 1
    56   33   56 1
    57   33   57 1
    58   34   35 1
    59   34   58 1
    60   34   59 1
    61   35   36 1
    62   35   37 1
    63   35   38 1
    64   37   60 1
    65   37   61 1
    66   38   62 1
    67   38   63 1
    68   38   64 1
@<TRIPOS>MOLECULE
CHEMBL400726
   64    68     0     0     0
SMALL
USER_CHARGES

@<TRIPOS>ATOM
      1 C1          1.3893   -2.4163    0.2393 C.ar      1 <0>        -0.0724
      2 C2          2.7019   -2.8242    0.3831 C.ar      1 <0>        -0.1518
      3 C3          2.9847   -4.1312    0.7420 C.ar      1 <0>         0.1069
      4 C4          1.9518   -5.0281    0.9564 C.ar      1 <0>        -0.1518
      5 C5          0.6401   -4.6179    0.8120 C.ar      1 <0>        -0.0725
      6 C6          0.3589   -3.3126    0.4536 C.ar      1 <0>        -0.0940
      7 C7         -1.0719   -2.8665    0.2965 C.3       1 <0>        -0.0932
      8 C8         -1.5133   -3.0867   -1.1274 C.2       1 <0>         0.5147
      9 O1         -0.7422   -3.5592   -1.9349 O.2       1 <0>        -0.4458
     10 N1         -2.7653   -2.7584   -1.5033 N.am      1 <0>        -0.6886
     11 C9         -3.1600   -2.9554   -2.7769 C.2       1 <0>         0.6943
     12 O2         -2.3869   -3.4291   -3.5864 O.2       1 <0>        -0.5027
     13 N2         -4.4120   -2.6271   -3.1527 N.am      1 <0>        -0.6797
     14 C10        -4.7962   -2.7527   -4.4941 C.ar      1 <0>         0.2085
     15 C11        -5.6733   -1.8333   -5.0542 C.ar      1 <0>        -0.1420
     16 C12        -6.0524   -1.9566   -6.3764 C.ar      1 <0>        -0.0606
     17 C13        -5.5577   -2.9988   -7.1461 C.ar      1 <0>         0.0245
     18 C14        -4.6797   -3.9193   -6.5875 C.ar      1 <0>         0.1372
     19 C15        -4.2958   -3.7931   -5.2651 C.ar      1 <0>        -0.1451
     20 F1         -4.1977   -4.9345   -7.3372 F         1 <0>        -0.1219
     21 O3         -5.9323   -3.1199   -8.4479 O.3       1 <0>        -0.2221
     22 C16        -5.0511   -2.7370   -9.4009 C.2       1 <0>         0.4585
     23 C17        -5.3443   -2.9387  -10.7672 C.2       1 <0>        -0.0817
     24 C18        -6.4167   -3.4859  -11.4455 C.2       1 <0>        -0.0672
     25 C19        -6.1196   -3.4021  -12.8063 C.2       1 <0>        -0.1652
     26 C20        -4.8984   -2.8185  -12.9330 C.2       1 <0>         0.0694
     27 N3         -4.4173   -2.5327  -11.7090 N.pl3     1 <0>        -0.2374
     28 N4         -3.2291   -1.9397  -11.2593 N.2       1 <0>        -0.3260
     29 C21        -3.0214   -1.7834   -9.9810 C.2       1 <0>         0.3288
     30 N5         -3.9091   -2.1651   -9.0639 N.2       1 <0>        -0.5974
     31 C22        -7.6670   -4.0628  -10.8330 C.3       1 <0>         0.0875
     32 N6         -8.5813   -2.9726  -10.4678 N.3       1 <0>        -0.4644
     33 C23        -8.3961   -2.5770   -9.0592 C.3       1 <0>         0.0198
     34 C24        -9.9235   -2.4729   -8.9456 C.3       1 <0>        -0.1674
     35 C25        -9.9057   -3.4986  -10.0877 C.3       1 <0>        -0.0014
     36 C26       -10.4893   -1.1069   -9.3391 C.3       1 <0>         0.0168
     37 N7        -11.9350   -1.0826   -9.0796 N.4       1 <0>        -0.6370
     38 F2          4.2674   -4.5313    0.8824 F         1 <0>        -0.1364
     39 H1          1.1684   -1.3957   -0.0363 H         1 <0>         0.1320
     40 H2          3.5067   -2.1239    0.2152 H         1 <0>         0.1385
     41 H3          2.1712   -6.0479    1.2360 H         1 <0>         0.1385
     42 H4         -0.1657   -5.3173    0.9789 H         1 <0>         0.1320
     43 H5         -1.7082   -3.4436    0.9675 H         1 <0>         0.1149
     44 H6         -1.1514   -1.8075    0.5419 H         1 <0>         0.1149
     45 H7         -3.3822   -2.3804   -0.8573 H         1 <0>         0.4138
     46 H8         -5.0469   -2.3039   -2.4945 H         1 <0>         0.4159
     47 H9         -6.0593   -1.0216   -4.4554 H         1 <0>         0.1456
     48 H10        -6.7348   -1.2413   -6.8112 H         1 <0>         0.1424
     49 H11        -3.6105   -4.5061   -4.8311 H         1 <0>         0.1630
     50 H12        -6.7487   -3.7412  -13.6160 H         1 <0>         0.1637
     51 H13        -4.3948   -2.6160  -13.8667 H         1 <0>         0.1857
     52 H14        -2.0997   -1.3245   -9.6550 H         1 <0>         0.2261
     53 H15        -8.1544   -4.7200  -11.5531 H         1 <0>         0.0954
     54 H16        -7.4053   -4.6318   -9.9409 H         1 <0>         0.0664
     55 H17        -7.9673   -3.3647   -8.4397 H         1 <0>         0.1011
     56 H18        -7.8857   -1.6213   -8.9401 H         1 <0>         0.0888
     57 H19       -10.3285   -2.8553   -8.0086 H         1 <0>         0.1106
     58 H20       -10.6746   -3.3239  -10.8402 H         1 <0>         0.0914
     59 H21        -9.8797   -4.5322   -9.7427 H         1 <0>         0.0887
     60 H22       -10.0017   -0.3288   -8.7519 H         1 <0>         0.1358
     61 H23       -10.3074   -0.9300  -10.3991 H         1 <0>         0.1441
     62 H24       -12.3082   -0.1817   -9.3391 H         1 <0>         0.4394
     63 H25       -12.3865   -1.8029   -9.6232 H         1 <0>         0.4354
     64 H26       -12.1035   -1.2464   -8.0984 H         1 <0>         0.4341
@<TRIPOS>BOND
     1    1    6 ar
     2    1    2 ar
     3    1   39 1
     4    2    3 ar
     5    2   40 1
     6    3    4 ar
     7    3   38 1
     8    4    5 ar
     9    4   41 1
    10    5    6 ar
    11    5   42 1
    12    6    7 1
    13    7    8 1
    14    7   43 1
    15    7   44 1
    16    8    9 2
    17    8   10 am
    18   10   11 am
    19   10   45 1
    20   11   12 2
    21   11   13 am
    22   13   14 1
    23   13   46 1
    24   14   19 ar
    25   14   15 ar
    26   15   16 ar
    27   15   47 1
    28   16   17 ar
    29   16   48 1
    30   17   18 ar
    31   17   21 1
    32   18   19 ar
    33   18   20 1
    34   19   49 1
    35   21   22 1
    36   22   30 2
    37   22   23 1
    38   23   27 1
    39   23   24 2
    40   24   25 1
    41   24   31 1
    42   25   26 2
    43   25   50 1
    44   26   27 1
    45   26   51 1
    46   27   28 1
    47   28   29 2
    48   29   30 1
    49   29   52 1
    50   31   32 1
    51   31   53 1
    52   31   54 1
    53   32   35 1
    54   32   33 1
    55   33   34 1
    56   33   55 1
    57   33   56 1
    58   34   35 1
    59   34   36 1
    60   34   57 1
    61   35   58 1
    62   35   59 1
    63   36   37 1
    64   36   60 1
    65   36   61 1
    66   37   62 1
    67   37   63 1
    68   37   64 1
@<TRIPOS>MOLECULE
CHEMBL518511
   52    55     0     0     0
SMALL
USER_CHARGES

@<TRIPOS>ATOM
      1 C1         -0.7451    0.0668    2.1516 C.3       1 <0>         0.0229
      2 O1         -0.3128   -0.5913    0.9591 O.3       1 <0>        -0.3016
      3 C2         -1.1428   -0.5282   -0.1162 C.ar      1 <0>         0.1133
      4 C3         -2.3241    0.1488   -0.0192 C.ar      1 <0>        -0.1539
      5 C4         -3.1800    0.2141   -1.1289 C.ar      1 <0>        -0.1065
      6 C5         -4.4103    0.9062   -1.0659 C.ar      1 <0>         0.1806
      7 C6         -5.2015    0.9276   -2.2010 C.ar      1 <0>        -0.2662
      8 C7         -4.7723    0.2791   -3.3521 C.ar      1 <0>         0.1657
      9 N1         -3.6277   -0.3612   -3.3997 N.ar      1 <0>        -0.4931
     10 C8         -2.8128   -0.4220   -2.3397 C.ar      1 <0>         0.1716
     11 C9         -1.5908   -1.1113   -2.4082 C.ar      1 <0>        -0.1796
     12 C10        -0.7740   -1.1545   -1.3153 C.ar      1 <0>         0.1515
     13 O2          0.4096   -1.8180   -1.3887 O.3       1 <0>        -0.2998
     14 C11         0.7307   -2.4359   -2.6366 C.3       1 <0>         0.0209
     15 O3         -4.8038    1.5299    0.0719 O.3       1 <0>        -0.2377
     16 C12        -5.9556    2.2515    0.0387 C.ar      1 <0>        -0.0103
     17 C13        -5.9144    3.6416   -0.0371 C.ar      1 <0>        -0.0422
     18 C14        -7.1106    4.3354   -0.0685 C.ar      1 <0>        -0.1923
     19 C15        -8.3060    3.6271   -0.0238 C.ar      1 <0>         0.3686
     20 N2         -8.3068    2.3059    0.0480 N.ar      1 <0>        -0.4586
     21 C16        -7.1847    1.6125    0.0740 C.ar      1 <0>         0.1364
     22 N3         -9.5187    4.3172   -0.0545 N.am      1 <0>        -0.6636
     23 C17       -10.6788    3.6483    0.0978 C.2       1 <0>         0.5021
     24 O4        -10.6764    2.4373    0.1631 O.2       1 <0>        -0.4527
     25 C18       -11.9789    4.4052    0.1869 C.3       1 <0>        -0.0985
     26 C19       -13.1167    3.4313    0.3535 C.ar      1 <0>        -0.0749
     27 C20       -13.7539    2.9159   -0.7597 C.ar      1 <0>        -0.1033
     28 C21       -14.7977    2.0225   -0.6069 C.ar      1 <0>        -0.1186
     29 C22       -15.2039    1.6442    0.6590 C.ar      1 <0>        -0.1161
     30 C23       -14.5662    2.1589    1.7722 C.ar      1 <0>        -0.1188
     31 C24       -13.5196    3.0490    1.6194 C.ar      1 <0>        -0.1035
     32 H1          0.0074   -0.0605    2.9299 H         1 <0>         0.1049
     33 H2         -0.8838    1.1290    1.9506 H         1 <0>         0.0577
     34 H3         -1.6885   -0.3664    2.4841 H         1 <0>         0.0584
     35 H4         -2.5986    0.6314    0.9071 H         1 <0>         0.1490
     36 H5         -6.1490    1.4459   -2.1919 H         1 <0>         0.1378
     37 H6         -5.3979    0.3023   -4.2321 H         1 <0>         0.1625
     38 H7         -1.2963   -1.6019   -3.3242 H         1 <0>         0.1542
     39 H8          0.7714   -1.6770   -3.4179 H         1 <0>         0.0607
     40 H9          1.6992   -2.9298   -2.5589 H         1 <0>         0.1058
     41 H10        -0.0338   -3.1722   -2.8848 H         1 <0>         0.0609
     42 H11        -4.9706    4.1655   -0.0701 H         1 <0>         0.1497
     43 H12        -7.1158    5.4138   -0.1267 H         1 <0>         0.1478
     44 H13        -7.2246    0.5346    0.1278 H         1 <0>         0.1665
     45 H14        -9.5266    5.2783   -0.1854 H         1 <0>         0.4203
     46 H15       -11.9490    5.0790    1.0432 H         1 <0>         0.1076
     47 H16       -12.1260    4.9833   -0.7253 H         1 <0>         0.1073
     48 H17       -13.4366    3.2115   -1.7488 H         1 <0>         0.1197
     49 H18       -15.2960    1.6204   -1.4767 H         1 <0>         0.1230
     50 H19       -16.0199    0.9468    0.7784 H         1 <0>         0.1224
     51 H20       -14.8838    1.8635    2.7613 H         1 <0>         0.1228
     52 H21       -13.0189    3.4482    2.4890 H         1 <0>         0.1194
@<TRIPOS>BOND
     1    1    2 1
     2    1   32 1
     3    1   33 1
     4    1   34 1
     5    2    3 1
     6    3   12 ar
     7    3    4 ar
     8    4    5 ar
     9    4   35 1
    10    5   10 ar
    11    5    6 ar
    12    6    7 ar
    13    6   15 1
    14    7    8 ar
    15    7   36 1
    16    8    9 ar
    17    8   37 1
    18    9   10 ar
    19   10   11 ar
    20   11   12 ar
    21   11   38 1
    22   12   13 1
    23   13   14 1
    24   14   39 1
    25   14   40 1
    26   14   41 1
    27   15   16 1
    28   16   21 ar
    29   16   17 ar
    30   17   18 ar
    31   17   42 1
    32   18   19 ar
    33   18   43 1
    34   19   20 ar
    35   19   22 1
    36   20   21 ar
    37   21   44 1
    38   22   23 am
    39   22   45 1
    40   23   24 2
    41   23   25 1
    42   25   26 1
    43   25   46 1
    44   25   47 1
    45   26   31 ar
    46   26   27 ar
    47   27   28 ar
    48   27   48 1
    49   28   29 ar
    50   28   49 1
    51   29   30 ar
    52   29   50 1
    53   30   31 ar
    54   30   51 1
    55   31   52 1
@<TRIPOS>MOLECULE
CHEMBL518511__1
   53    56     0     0     0
SMALL
USER_CHARGES

@<TRIPOS>ATOM
      1 C1          2.2349    0.1213   -0.4259 C.3       1 <0>         0.0148
      2 O1          1.0028   -0.5670   -0.2017 O.3       1 <0>        -0.2864
      3 C2          0.4850   -0.5126    1.0544 C.ar      1 <0>         0.1349
      4 C3          1.1423    0.1845    2.0266 C.ar      1 <0>        -0.1362
      5 C4          0.6076    0.2410    3.3224 C.ar      1 <0>        -0.0891
      6 C5          1.2596    0.9533    4.3541 C.ar      1 <0>         0.2791
      7 C6          0.6716    0.9643    5.6067 C.ar      1 <0>        -0.2649
      8 C7         -0.5233    0.2864    5.8127 C.ar      1 <0>         0.2274
      9 N1         -1.1203   -0.3726    4.8475 N.ar      1 <0>        -0.4813
     10 C8         -0.6083   -0.4248    3.6121 C.ar      1 <0>         0.1818
     11 C9         -1.2610   -1.1344    2.5904 C.ar      1 <0>        -0.2356
     12 C10        -0.7218   -1.1683    1.3367 C.ar      1 <0>         0.2164
     13 O2         -1.3602   -1.8516    0.3507 O.3       1 <0>        -0.2774
     14 C11        -2.5855   -2.4992    0.6987 C.3       1 <0>         0.0116
     15 O3          2.4257    1.6056    4.1238 O.3       1 <0>        -0.2014
     16 C12         2.9544    2.3443    5.1354 C.ar      1 <0>        -0.0582
     17 C13         2.8334    3.7318    5.1328 C.ar      1 <0>        -0.0256
     18 C14         3.3865    4.4434    6.1820 C.ar      1 <0>        -0.1922
     19 C15         4.0403    3.7548    7.1974 C.ar      1 <0>         0.3920
     20 N2          4.1360    2.4355    7.1668 N.ar      1 <0>        -0.4576
     21 C16         3.6152    1.7254    6.1845 C.ar      1 <0>         0.1509
     22 N3          4.6024    4.4630    8.2606 N.am      1 <0>        -0.6621
     23 C17         5.3308    3.8155    9.1915 C.2       1 <0>         0.5041
     24 O4          5.4166    2.6061    9.1610 O.2       1 <0>        -0.4489
     25 C18         6.0387    4.5941   10.2702 C.3       1 <0>        -0.0978
     26 C19         6.7760    3.6416   11.1758 C.ar      1 <0>        -0.0798
     27 C20         6.1435    3.1140   12.2860 C.ar      1 <0>        -0.1037
     28 C21         6.8198    2.2402   13.1166 C.ar      1 <0>        -0.1182
     29 C22         8.1284    1.8937   12.8369 C.ar      1 <0>        -0.1131
     30 C23         8.7606    2.4205   11.7262 C.ar      1 <0>        -0.1175
     31 C24         8.0829    3.2909   10.8931 C.ar      1 <0>        -0.1032
     32 H1          3.0050   -0.2903    0.2265 H         1 <0>         0.0675
     33 H2          2.5359   -0.0020   -1.4662 H         1 <0>         0.1187
     34 H3          2.1035    1.1814   -0.2089 H         1 <0>         0.0668
     35 H4          2.0694    0.6898    1.7996 H         1 <0>         0.1729
     36 H5          1.1399    1.4974    6.4209 H         1 <0>         0.1806
     37 H6         -0.9731    0.3017    6.7945 H         1 <0>         0.2120
     38 H7         -2.1889   -1.6477    2.7950 H         1 <0>         0.1713
     39 H8         -2.9899   -3.0065   -0.1772 H         1 <0>         0.1216
     40 H9         -2.3999   -3.2283    1.4874 H         1 <0>         0.0695
     41 H10        -3.3015   -1.7568    1.0514 H         1 <0>         0.0693
     42 H11         2.3200    4.2402    4.3301 H         1 <0>         0.1555
     43 H12         3.3116    5.5204    6.2119 H         1 <0>         0.1565
     44 H13         3.7088    0.6495    6.1958 H         1 <0>         0.1704
     45 H14         4.4689    5.4213    8.3295 H         1 <0>         0.4249
     46 H15         6.7483    5.2844    9.8139 H         1 <0>         0.1105
     47 H16         5.3078    5.1561   10.8517 H         1 <0>         0.1099
     48 H17         5.1211    3.3848   12.5046 H         1 <0>         0.1192
     49 H18         6.3258    1.8286   13.9844 H         1 <0>         0.1240
     50 H19         8.6570    1.2115   13.4863 H         1 <0>         0.1242
     51 H20         9.7831    2.1500   11.5078 H         1 <0>         0.1244
     52 H21         8.5756    3.6996   10.0233 H         1 <0>         0.1196
     53 H22        -1.9534   -0.8331    5.0342 H         1 <0>         0.4477
@<TRIPOS>BOND
     1    1    2 1
     2    1   32 1
     3    1   33 1
     4    1   34 1
     5    2    3 1
     6    3   12 ar
     7    3    4 ar
     8    4    5 ar
     9    4   35 1
    10    5   10 ar
    11    5    6 ar
    12    6    7 ar
    13    6   15 1
    14    7    8 ar
    15    7   36 1
    16    8    9 ar
    17    8   37 1
    18    9   10 ar
    19    9   53 1
    20   10   11 ar
    21   11   12 ar
    22   11   38 1
    23   12   13 1
    24   13   14 1
    25   14   39 1
    26   14   40 1
    27   14   41 1
    28   15   16 1
    29   16   21 ar
    30   16   17 ar
    31   17   18 ar
    32   17   42 1
    33   18   19 ar
    34   18   43 1
    35   19   20 ar
    36   19   22 1
    37   20   21 ar
    38   21   44 1
    39   22   23 am
    40   22   45 1
    41   23   24 2
    42   23   25 1
    43   25   26 1
    44   25   46 1
    45   25   47 1
    46   26   31 ar
    47   26   27 ar
    48   27   28 ar
    49   27   48 1
    50   28   29 ar
    51   28   49 1
    52   29   30 ar
    53   29   50 1
    54   30   31 ar
    55   30   51 1
    56   31   52 1
@<TRIPOS>MOLECULE
CHEMBL489326
   61    65     0     0     0
SMALL
USER_CHARGES

@<TRIPOS>ATOM
      1 C1          2.8368    1.4083    1.2950 C.3       1 <0>         0.0227
      2 O1          2.0301    0.2309    1.2236 O.3       1 <0>        -0.3012
      3 C2          1.6946   -0.2133   -0.0171 C.ar      1 <0>         0.1147
      4 C3          2.1350    0.4621   -1.1185 C.ar      1 <0>        -0.1546
      5 C4          1.7893    0.0034   -2.3984 C.ar      1 <0>        -0.1046
      6 C5          2.2271    0.6762   -3.5614 C.ar      1 <0>         0.1805
      7 C6          1.8462    0.1642   -4.7893 C.ar      1 <0>        -0.2651
      8 C7          1.0572   -0.9777   -4.8447 C.ar      1 <0>         0.1655
      9 N1          0.6560   -1.5950   -3.7583 N.ar      1 <0>        -0.4914
     10 C8          0.9869   -1.1552   -2.5382 C.ar      1 <0>         0.1718
     11 C9          0.5489   -1.8282   -1.3858 C.ar      1 <0>        -0.1794
     12 C10         0.9046   -1.3638   -0.1523 C.ar      1 <0>         0.1521
     13 O2          0.4831   -2.0221    0.9592 O.3       1 <0>        -0.2994
     14 C11        -0.3188   -3.1876    0.7579 C.3       1 <0>         0.0208
     15 O3          2.9965    1.7894   -3.4767 O.3       1 <0>        -0.2365
     16 C12         3.4408    2.3479   -4.6343 C.ar      1 <0>         0.0343
     17 C13         4.7307    2.0941   -5.0761 C.ar      1 <0>        -0.0686
     18 C14         5.1827    2.6605   -6.2518 C.ar      1 <0>        -0.1320
     19 C15         4.3462    3.4851   -6.9924 C.ar      1 <0>         0.1762
     20 C16         3.0547    3.7400   -6.5512 C.ar      1 <0>        -0.1390
     21 C17         2.6006    3.1681   -5.3771 C.ar      1 <0>         0.1167
     22 F1          1.3424    3.4113   -4.9494 F         1 <0>        -0.1188
     23 N2          4.8055    4.0601   -8.1843 N.am      1 <0>        -0.6731
     24 C18         4.5257    5.3489   -8.4624 C.2       1 <0>         0.5587
     25 O4          3.7801    5.9769   -7.7408 O.2       1 <0>        -0.4873
     26 C19         5.1393    6.0095   -9.6699 C.3       1 <0>        -0.2081
     27 C20         6.5153    6.6562   -9.4986 C.3       1 <0>        -0.1301
     28 C21         5.2712    7.5337   -9.6506 C.3       1 <0>        -0.1035
     29 C22         4.8380    5.3538  -10.9929 C.2       1 <0>         0.5572
     30 O5          4.3375    5.9993  -11.8896 O.2       1 <0>        -0.4896
     31 N3          5.1247    4.0502  -11.1798 N.am      1 <0>        -0.6702
     32 C23         4.9771    3.4757  -12.4482 C.ar      1 <0>         0.1293
     33 C24         5.3011    4.2057  -13.5840 C.ar      1 <0>        -0.0862
     34 C25         5.1547    3.6372  -14.8342 C.ar      1 <0>        -0.1320
     35 C26         4.6847    2.3403  -14.9554 C.ar      1 <0>         0.0916
     36 C27         4.3610    1.6106  -13.8239 C.ar      1 <0>        -0.1323
     37 C28         4.5118    2.1733  -12.5716 C.ar      1 <0>        -0.1106
     38 F2          4.5414    1.7863  -16.1792 F         1 <0>        -0.1360
     39 H1          3.7820    1.2328    0.7813 H         1 <0>         0.0580
     40 H2          2.3129    2.2371    0.8189 H         1 <0>         0.0584
     41 H3          3.0308    1.6530    2.3393 H         1 <0>         0.1053
     42 H4          2.7462    1.3453   -1.0053 H         1 <0>         0.1490
     43 H5          2.1608    0.6507   -5.7008 H         1 <0>         0.1370
     44 H6          0.7656   -1.3682   -5.8085 H         1 <0>         0.1633
     45 H7         -0.0636   -2.7133   -1.4753 H         1 <0>         0.1547
     46 H8         -0.5866   -3.6156    1.7239 H         1 <0>         0.1060
     47 H9         -1.2253   -2.9160    0.2170 H         1 <0>         0.0609
     48 H10         0.2438   -3.9203    0.1793 H         1 <0>         0.0609
     49 H11         5.3822    1.4535   -4.5003 H         1 <0>         0.1522
     50 H12         6.1873    2.4623   -6.5951 H         1 <0>         0.1477
     51 H13         2.4038    4.3815   -7.1267 H         1 <0>         0.1556
     52 H14         5.3248    3.5307   -8.8096 H         1 <0>         0.4070
     53 H15         6.9768    6.6037   -8.5124 H         1 <0>         0.1162
     54 H16         7.2030    6.6073  -10.3428 H         1 <0>         0.1166
     55 H17         5.1405    8.0622  -10.5949 H         1 <0>         0.1224
     56 H18         4.9142    8.0586   -8.7646 H         1 <0>         0.1212
     57 H19         5.4333    3.5100  -10.4356 H         1 <0>         0.4018
     58 H20         5.6670    5.2174  -13.4900 H         1 <0>         0.1407
     59 H21         5.4066    4.2047  -15.7179 H         1 <0>         0.1426
     60 H22         3.9943    0.5994  -13.9205 H         1 <0>         0.1432
     61 H23         4.2635    1.6023  -11.6891 H         1 <0>         0.1373
@<TRIPOS>BOND
     1    1    2 1
     2    1   39 1
     3    1   40 1
     4    1   41 1
     5    2    3 1
     6    3   12 ar
     7    3    4 ar
     8    4    5 ar
     9    4   42 1
    10    5   10 ar
    11    5    6 ar
    12    6    7 ar
    13    6   15 1
    14    7    8 ar
    15    7   43 1
    16    8    9 ar
    17    8   44 1
    18    9   10 ar
    19   10   11 ar
    20   11   12 ar
    21   11   45 1
    22   12   13 1
    23   13   14 1
    24   14   46 1
    25   14   47 1
    26   14   48 1
    27   15   16 1
    28   16   21 ar
    29   16   17 ar
    30   17   18 ar
    31   17   49 1
    32   18   19 ar
    33   18   50 1
    34   19   20 ar
    35   19   23 1
    36   20   21 ar
    37   20   51 1
    38   21   22 1
    39   23   24 am
    40   23   52 1
    41   24   25 2
    42   24   26 1
    43   26   28 1
    44   26   27 1
    45   26   29 1
    46   27   28 1
    47   27   53 1
    48   27   54 1
    49   28   55 1
    50   28   56 1
    51   29   30 2
    52   29   31 am
    53   31   32 1
    54   31   57 1
    55   32   37 ar
    56   32   33 ar
    57   33   34 ar
    58   33   58 1
    59   34   35 ar
    60   34   59 1
    61   35   36 ar
    62   35   38 1
    63   36   37 ar
    64   36   60 1
    65   37   61 1
@<TRIPOS>MOLECULE
CHEMBL454356
   50    54     0     0     0
SMALL
USER_CHARGES

@<TRIPOS>ATOM
      1 C1         -0.1749    0.0649   -1.3247 C.ar      1 <0>        -0.0765
      2 C2          1.0401    0.1170   -1.9764 C.ar      1 <0>        -0.1533
      3 C3          1.5451   -1.0144   -2.5964 C.ar      1 <0>         0.1048
      4 C4          0.8334   -2.2026   -2.5652 C.ar      1 <0>        -0.1516
      5 C5         -0.3825   -2.2641   -1.9160 C.ar      1 <0>        -0.0596
      6 C6         -0.8945   -1.1283   -1.2908 C.ar      1 <0>        -0.0396
      7 C7         -2.2007   -1.1895   -0.5912 C.2       1 <0>        -0.1893
      8 C8         -3.2667   -0.4725   -1.0433 C.2       1 <0>         0.1350
      9 N1         -4.4659   -0.5158   -0.4174 N.pl3     1 <0>        -0.5706
     10 H1         -5.1943    0.0135   -0.7782 H         1 <0>         0.4314
     11 C9         -4.6958   -1.2556    0.6777 C.2       1 <0>         0.2258
     12 C10        -3.7013   -2.0297    1.2391 C.2       1 <0>        -0.3254
     13 C11        -2.3753   -2.0298    0.6018 C.2       1 <0>         0.4207
     14 O1         -1.4564   -2.6975    1.0480 O.2       1 <0>        -0.4930
     15 C12        -3.9618   -2.8392    2.4414 C.2       1 <0>         0.5899
     16 O2         -5.0886   -2.9108    2.8939 O.2       1 <0>        -0.5318
     17 N2         -2.9518   -3.5006    3.0404 N.am      1 <0>        -0.6627
     18 C13        -3.2209   -4.3883    4.0893 C.ar      1 <0>         0.1931
     19 C14        -4.3569   -5.1862    4.0497 C.ar      1 <0>        -0.1178
     20 C15        -4.6227   -6.0619    5.0840 C.ar      1 <0>        -0.0679
     21 C16        -3.7556   -6.1453    6.1632 C.ar      1 <0>         0.0249
     22 C17        -2.6185   -5.3481    6.2042 C.ar      1 <0>         0.1194
     23 C18        -2.3491   -4.4750    5.1665 C.ar      1 <0>        -0.1713
     24 F1         -1.7741   -5.4290    7.2557 F         1 <0>        -0.1227
     25 O3         -4.0187   -7.0073    7.1816 O.3       1 <0>        -0.2355
     26 C19        -4.6380   -6.5189    8.2855 C.ar      1 <0>         0.2106
     27 C20        -4.9841   -5.1765    8.3778 C.ar      1 <0>        -0.2831
     28 C21        -5.6147   -4.7161    9.5202 C.ar      1 <0>         0.1779
     29 N3         -5.8963   -5.5192   10.5253 N.ar      1 <0>        -0.5185
     30 C22        -5.5906   -6.8112   10.4960 C.ar      1 <0>         0.3160
     31 C23        -4.9538   -7.3544    9.3664 C.ar      1 <0>        -0.1776
     32 C24        -4.7681   -8.7790    9.6456 C.2       1 <0>        -0.1745
     33 C25        -5.2821   -9.0071   10.8643 C.2       1 <0>         0.0508
     34 N4         -5.7699   -7.8394   11.3895 N.pl3     1 <0>        -0.5789
     35 H2         -6.1902   -7.7535   12.2594 H         1 <0>         0.4229
     36 F2          2.7351   -0.9587   -3.2337 F         1 <0>        -0.1376
     37 H3         -0.5657    0.9462   -0.8379 H         1 <0>         0.1336
     38 H4          1.5982    1.0412   -2.0035 H         1 <0>         0.1387
     39 H5          1.2307   -3.0820   -3.0502 H         1 <0>         0.1389
     40 H6         -0.9369   -3.1907   -1.8925 H         1 <0>         0.1329
     41 H7         -3.1524    0.1453   -1.9217 H         1 <0>         0.1753
     42 H8         -5.6773   -1.2447    1.1283 H         1 <0>         0.1863
     43 H9         -2.0384   -3.3617    2.7449 H         1 <0>         0.4273
     44 H10        -5.0328   -5.1217    3.2098 H         1 <0>         0.1465
     45 H11        -5.5065   -6.6819    5.0525 H         1 <0>         0.1477
     46 H12        -1.4633   -3.8579    5.1958 H         1 <0>         0.1486
     47 H13        -4.7629   -4.4991    7.5662 H         1 <0>         0.1393
     48 H14        -5.8824   -3.6721    9.5895 H         1 <0>         0.1657
     49 H15        -4.3063   -9.5073    8.9954 H         1 <0>         0.1532
     50 H16        -5.3000   -9.9660   11.3608 H         1 <0>         0.1812
@<TRIPOS>BOND
     1    1    6 ar
     2    1    2 ar
     3    1   37 1
     4    2    3 ar
     5    2   38 1
     6    3    4 ar
     7    3   36 1
     8    4    5 ar
     9    4   39 1
    10    5    6 ar
    11    5   40 1
    12    6    7 1
    13    7   13 1
    14    7    8 2
    15    8    9 1
    16    8   41 1
    17    9   10 1
    18    9   11 1
    19   11   12 2
    20   11   42 1
    21   12   13 1
    22   12   15 1
    23   13   14 2
    24   15   16 2
    25   15   17 am
    26   17   18 1
    27   17   43 1
    28   18   23 ar
    29   18   19 ar
    30   19   20 ar
    31   19   44 1
    32   20   21 ar
    33   20   45 1
    34   21   22 ar
    35   21   25 1
    36   22   23 ar
    37   22   24 1
    38   23   46 1
    39   25   26 1
    40   26   31 ar
    41   26   27 ar
    42   27   28 ar
    43   27   47 1
    44   28   29 ar
    45   28   48 1
    46   29   30 ar
    47   30   34 1
    48   30   31 ar
    49   31   32 1
    50   32   33 2
    51   32   49 1
    52   33   34 1
    53   33   50 1
    54   34   35 1
@<TRIPOS>MOLECULE
CHEMBL258240
   56    60     0     0     0
SMALL
USER_CHARGES

@<TRIPOS>ATOM
      1 C1         -0.7580   -1.0447    1.4059 C.3       1 <0>         0.0607
      2 N1          0.2347   -0.7171    0.3795 N.pl3     1 <0>        -0.4508
      3 C2          0.3009   -1.2373   -0.8848 C.2       1 <0>        -0.0320
      4 C3          1.3612   -0.6656   -1.4930 C.2       1 <0>        -0.0194
      5 N2          1.9350    0.1826   -0.6335 N.2       1 <0>        -0.4526
      6 C4          1.2665    0.1699    0.5006 C.2       1 <0>         0.2628
      7 C5          1.5796    0.9715    1.6959 C.2       1 <0>        -0.0380
      8 C6          2.7198    1.6545    1.9841 C.2       1 <0>        -0.1001
      9 C7          2.8248    2.3678    3.1919 C.ar      1 <0>         0.1590
     10 C8          1.6898    2.3072    4.0300 C.ar      1 <0>        -0.2036
     11 S1          0.5536    1.2927    3.1204 S.3       1 <0>         0.1053
     12 C9          1.6472    2.9591    5.2497 C.ar      1 <0>         0.2112
     13 C10         2.7683    3.6890    5.6388 C.ar      1 <0>        -0.2302
     14 C11         3.8606    3.7228    4.7876 C.ar      1 <0>         0.1617
     15 N3          3.8738    3.0968    3.6386 N.ar      1 <0>        -0.4709
     16 O1          0.5473    2.8901    6.0422 O.3       1 <0>        -0.2381
     17 C12         0.6099    3.4657    7.2728 C.ar      1 <0>         0.0518
     18 C13         0.8073    2.6784    8.3973 C.ar      1 <0>        -0.0803
     19 C14         0.8709    3.2620    9.6474 C.ar      1 <0>        -0.0634
     20 C15         0.7369    4.6379    9.7796 C.ar      1 <0>         0.1573
     21 C16         0.5392    5.4272    8.6545 C.ar      1 <0>        -0.1430
     22 C17         0.4817    4.8431    7.4026 C.ar      1 <0>         0.0974
     23 F1          0.2949    5.6106    6.3066 F         1 <0>        -0.1211
     24 N4          0.8006    5.2292   11.0475 N.pl3     1 <0>        -0.6255
     25 C18         1.7749    4.8741   11.9084 C.2       1 <0>         0.5082
     26 S2          2.8642    3.6188   11.4980 S.2       1 <0>        -0.4738
     27 N5          1.8915    5.5073   13.0925 N.am      1 <0>        -0.6414
     28 C19         2.8658    5.1523   13.9534 C.2       1 <0>         0.4829
     29 O2          3.6373    4.2633   13.6628 O.2       1 <0>        -0.3888
     30 C20         2.9963    5.8603   15.2773 C.3       1 <0>        -0.0932
     31 C21         4.1547    5.2787   16.0460 C.ar      1 <0>        -0.0803
     32 C22         3.9523    4.2069   16.8952 C.ar      1 <0>        -0.1013
     33 C23         5.0149    3.6734   17.6003 C.ar      1 <0>        -0.1182
     34 C24         6.2800    4.2114   17.4558 C.ar      1 <0>        -0.1128
     35 C25         6.4826    5.2826   16.6059 C.ar      1 <0>        -0.1181
     36 C26         5.4208    5.8134   15.8975 C.ar      1 <0>        -0.1012
     37 H1         -1.6112   -0.3726    1.3138 H         1 <0>         0.0860
     38 H2         -1.0907   -2.0743    1.2741 H         1 <0>         0.0979
     39 H3         -0.3108   -0.9309    2.3934 H         1 <0>         0.0905
     40 H4         -0.3689   -1.9674   -1.3144 H         1 <0>         0.1850
     41 H5          1.6907   -0.8607   -2.5028 H         1 <0>         0.1803
     42 H6          3.5440    1.6490    1.2862 H         1 <0>         0.1608
     43 H7          2.7852    4.2162    6.5813 H         1 <0>         0.1496
     44 H8          4.7331    4.2867    5.0829 H         1 <0>         0.1697
     45 H9          0.9109    1.6082    8.2954 H         1 <0>         0.1527
     46 H10         1.0247    2.6481   10.5225 H         1 <0>         0.1631
     47 H11         0.4349    6.4973    8.7567 H         1 <0>         0.1493
     48 H12         0.1435    5.8943   11.3061 H         1 <0>         0.4123
     49 H13         1.2743    6.2186   13.3250 H         1 <0>         0.4127
     50 H14         3.1707    6.9225   15.1057 H         1 <0>         0.1093
     51 H15         2.0783    5.7309   15.8506 H         1 <0>         0.1093
     52 H16         2.9638    3.7866   17.0081 H         1 <0>         0.1201
     53 H17         4.8566    2.8365   18.2643 H         1 <0>         0.1238
     54 H18         7.1101    3.7951   18.0072 H         1 <0>         0.1233
     55 H19         7.4710    5.7032   16.4932 H         1 <0>         0.1239
     56 H20         5.5798    6.6479   15.2307 H         1 <0>         0.1203
@<TRIPOS>BOND
     1    1    2 1
     2    1   37 1
     3    1   38 1
     4    1   39 1
     5    2    6 1
     6    2    3 1
     7    3    4 2
     8    3   40 1
     9    4    5 1
    10    4   41 1
    11    5    6 2
    12    6    7 1
    13    7   11 1
    14    7    8 2
    15    8    9 1
    16    8   42 1
    17    9   15 ar
    18    9   10 ar
    19   10   11 1
    20   10   12 ar
    21   12   13 ar
    22   12   16 1
    23   13   14 ar
    24   13   43 1
    25   14   15 ar
    26   14   44 1
    27   16   17 1
    28   17   22 ar
    29   17   18 ar
    30   18   19 ar
    31   18   45 1
    32   19   20 ar
    33   19   46 1
    34   20   21 ar
    35   20   24 1
    36   21   22 ar
    37   21   47 1
    38   22   23 1
    39   24   25 1
    40   24   48 1
    41   25   26 2
    42   25   27 1
    43   27   28 am
    44   27   49 1
    45   28   29 2
    46   28   30 1
    47   30   31 1
    48   30   50 1
    49   30   51 1
    50   31   36 ar
    51   31   32 ar
    52   32   33 ar
    53   32   52 1
    54   33   34 ar
    55   33   53 1
    56   34   35 ar
    57   34   54 1
    58   35   36 ar
    59   35   55 1
    60   36   56 1
@<TRIPOS>MOLECULE
CHEMBL258240__1
   57    61     0     0     0
SMALL
USER_CHARGES

@<TRIPOS>ATOM
      1 C1         -0.4363   -1.5060    1.5911 C.3       1 <0>         0.0465
      2 N1          0.4966   -1.1300    0.5260 N.pl3     1 <0>        -0.3974
      3 C2          0.4487   -1.5375   -0.7798 C.2       1 <0>         0.0360
      4 C3          1.4900   -0.9588   -1.4136 C.2       1 <0>         0.0169
      5 N2          2.1631   -0.2156   -0.5291 N.pl3     1 <0>        -0.4643
      6 C4          1.5761   -0.3016    0.6460 C.cat     1 <0>         0.3956
      7 C5          2.0107    0.3762    1.8795 C.2       1 <0>        -0.1730
      8 C6          3.2760    0.6549    2.2930 C.2       1 <0>        -0.0287
      9 C7          3.4850    1.3174    3.5162 C.ar      1 <0>         0.1258
     10 C8          2.3135    1.6463    4.2331 C.ar      1 <0>        -0.1814
     11 S1          1.0069    1.0414    3.1965 S.3       1 <0>         0.1785
     12 C9          2.3626    2.2991    5.4520 C.ar      1 <0>         0.2079
     13 C10         3.6150    2.6302    5.9648 C.ar      1 <0>        -0.1993
     14 C11         4.7388    2.2896    5.2302 C.ar      1 <0>         0.1698
     15 N3          4.6634    1.6722    4.0789 N.ar      1 <0>        -0.4589
     16 O1          1.2260    2.6077    6.1269 O.3       1 <0>        -0.2334
     17 C12         1.3478    3.1544    7.3663 C.ar      1 <0>         0.0374
     18 C13         1.1620    2.3670    8.4927 C.ar      1 <0>        -0.0771
     19 C14         1.2855    2.9211    9.7516 C.ar      1 <0>        -0.0630
     20 C15         1.5954    4.2676    9.8908 C.ar      1 <0>         0.1689
     21 C16         1.7817    5.0570    8.7639 C.ar      1 <0>        -0.1427
     22 C17         1.6640    4.5003    7.5037 C.ar      1 <0>         0.0991
     23 F1          1.8504    5.2661    6.4065 F         1 <0>        -0.1221
     24 N4          1.7197    4.8294   11.1677 N.pl3     1 <0>        -0.6288
     25 C18         2.4318    4.1919   12.1180 C.2       1 <0>         0.5100
     26 S2          3.0872    2.6423   11.8014 S.2       1 <0>        -0.4746
     27 N5          2.6280    4.7744   13.3174 N.am      1 <0>        -0.6397
     28 C19         3.3402    4.1370   14.2677 C.2       1 <0>         0.4833
     29 O2          3.8043    3.0395   14.0435 O.2       1 <0>        -0.3878
     30 C20         3.5596    4.7883   15.6088 C.3       1 <0>        -0.0927
     31 C21         4.3801    3.8749   16.4826 C.ar      1 <0>        -0.0823
     32 C22         3.7536    2.9440   17.2900 C.ar      1 <0>        -0.1013
     33 C23         4.5063    2.1062   18.0915 C.ar      1 <0>        -0.1177
     34 C24         5.8856    2.1990   18.0852 C.ar      1 <0>        -0.1116
     35 C25         6.5121    3.1292   17.2772 C.ar      1 <0>        -0.1178
     36 C26         5.7596    3.9641   16.4725 C.ar      1 <0>        -0.1014
     37 H1         -1.2603   -0.7931    1.6208 H         1 <0>         0.1155
     38 H2         -0.8268   -2.5048    1.3963 H         1 <0>         0.1279
     39 H3          0.0841   -1.4998    2.5488 H         1 <0>         0.1141
     40 H4         -0.2842   -2.1975   -1.2199 H         1 <0>         0.2309
     41 H5          1.7381   -1.0765   -2.4581 H         1 <0>         0.2309
     42 H6          4.1196    0.3676    1.6830 H         1 <0>         0.1612
     43 H7          3.7073    3.1405    6.9122 H         1 <0>         0.1605
     44 H8          5.7129    2.5432    5.6217 H         1 <0>         0.1807
     45 H9          0.9202    1.3199    8.3852 H         1 <0>         0.1532
     46 H10         1.1406    2.3072   10.6282 H         1 <0>         0.1661
     47 H11         2.0228    6.1042    8.8715 H         1 <0>         0.1526
     48 H12         1.2932    5.6772   11.3681 H         1 <0>         0.4145
     49 H13         2.2567    5.6524   13.4967 H         1 <0>         0.4143
     50 H14         4.0878    5.7319   15.4724 H         1 <0>         0.1102
     51 H15         2.5964    4.9764   16.0833 H         1 <0>         0.1104
     52 H16         2.6761    2.8716   17.2948 H         1 <0>         0.1201
     53 H17         4.0168    1.3794   18.7228 H         1 <0>         0.1245
     54 H18         6.4736    1.5449   18.7120 H         1 <0>         0.1241
     55 H19         7.5896    3.2019   17.2726 H         1 <0>         0.1244
     56 H20         6.2492    4.6884   15.8384 H         1 <0>         0.1200
     57 H21         2.9565    0.3075   -0.7236 H         1 <0>         0.4652
@<TRIPOS>BOND
     1    1    2 1
     2    1   37 1
     3    1   38 1
     4    1   39 1
     5    2    6 1
     6    2    3 1
     7    3    4 2
     8    3   40 1
     9    4    5 1
    10    4   41 1
    11    5    6 2
    12    5   57 1
    13    6    7 1
    14    7   11 1
    15    7    8 2
    16    8    9 1
    17    8   42 1
    18    9   15 ar
    19    9   10 ar
    20   10   11 1
    21   10   12 ar
    22   12   13 ar
    23   12   16 1
    24   13   14 ar
    25   13   43 1
    26   14   15 ar
    27   14   44 1
    28   16   17 1
    29   17   22 ar
    30   17   18 ar
    31   18   19 ar
    32   18   45 1
    33   19   20 ar
    34   19   46 1
    35   20   21 ar
    36   20   24 1
    37   21   22 ar
    38   21   47 1
    39   22   23 1
    40   24   25 1
    41   24   48 1
    42   25   26 2
    43   25   27 1
    44   27   28 am
    45   27   49 1
    46   28   29 2
    47   28   30 1
    48   30   31 1
    49   30   50 1
    50   30   51 1
    51   31   36 ar
    52   31   32 ar
    53   32   33 ar
    54   32   52 1
    55   33   34 ar
    56   33   53 1
    57   34   35 ar
    58   34   54 1
    59   35   36 ar
    60   35   55 1
    61   36   56 1
@<TRIPOS>MOLECULE
CHEMBL510316
   49    53     0     0     0
SMALL
USER_CHARGES

@<TRIPOS>ATOM
      1 C1          0.7701   -0.5643   -1.8023 C.ar      1 <0>        -0.1589
      2 C2          1.6888   -0.1460   -0.8533 C.ar      1 <0>        -0.0431
      3 C3          2.3975    1.0288   -1.0916 C.ar      1 <0>         0.0354
      4 C4          2.1590    1.7335   -2.2644 C.ar      1 <0>         0.1266
      5 N1          1.2758    1.3000   -3.1411 N.ar      1 <0>        -0.4699
      6 C5          0.5884    0.1916   -2.9453 C.ar      1 <0>         0.1190
      7 N2          3.3365    1.4929   -0.1622 N.am      1 <0>        -0.4421
      8 C6          3.0323    2.5597    0.6179 C.2       1 <0>         0.1712
      9 C7          3.9161    3.0388    1.5301 C.2       1 <0>        -0.2322
     10 C8          5.1639    2.4341    1.6807 C.2       1 <0>         0.0788
     11 C9          5.4832    1.3370    0.8826 C.2       1 <0>        -0.2833
     12 C10         4.5251    0.8696   -0.0534 C.2       1 <0>         0.5355
     13 O1          4.7788   -0.0906   -0.7600 O.2       1 <0>        -0.5330
     14 C11         6.7888    0.6728    1.0116 C.2       1 <0>         0.5857
     15 O2          7.5437    0.9849    1.9133 O.2       1 <0>        -0.5224
     16 N3          7.1493   -0.2817    0.1310 N.am      1 <0>        -0.6593
     17 C12         8.3392   -0.9950    0.3197 C.ar      1 <0>         0.1826
     18 C13         9.4385   -0.3719    0.8960 C.ar      1 <0>        -0.1202
     19 C14        10.6124   -1.0751    1.0823 C.ar      1 <0>        -0.0682
     20 C15        10.6949   -2.4039    0.6938 C.ar      1 <0>         0.0293
     21 C16         9.5961   -3.0288    0.1171 C.ar      1 <0>         0.1053
     22 C17         8.4186   -2.3271   -0.0640 C.ar      1 <0>        -0.1689
     23 F1          9.6765   -4.3232   -0.2614 F         1 <0>        -0.1235
     24 O3         11.8517   -3.0952    0.8769 O.3       1 <0>        -0.2339
     25 C18        12.5275   -3.5090   -0.2244 C.ar      1 <0>         0.2104
     26 C19        12.1245   -3.1266   -1.4979 C.ar      1 <0>        -0.2824
     27 C20        12.8401   -3.5688   -2.5965 C.ar      1 <0>         0.1780
     28 N4         13.8961   -4.3449   -2.4666 N.ar      1 <0>        -0.5176
     29 C21        14.3297   -4.7436   -1.2764 C.ar      1 <0>         0.3162
     30 C22        13.6578   -4.3311   -0.1124 C.ar      1 <0>        -0.1766
     31 C23        14.3805   -4.9278    1.0118 C.2       1 <0>        -0.1748
     32 C24        15.4003   -5.6281    0.4912 C.2       1 <0>         0.0514
     33 N5         15.3790   -5.5348   -0.8755 N.pl3     1 <0>        -0.5788
     34 H1         16.0172   -5.9565   -1.4719 H         1 <0>         0.4230
     35 H2          0.2058   -1.4729   -1.6528 H         1 <0>         0.1491
     36 H3          1.8510   -0.7167    0.0491 H         1 <0>         0.1414
     37 H4          2.7025    2.6461   -2.4596 H         1 <0>         0.1625
     38 H5         -0.1265   -0.1300   -3.6882 H         1 <0>         0.1684
     39 H6          2.0694    3.0370    0.5112 H         1 <0>         0.1742
     40 H7          3.6526    3.8902    2.1402 H         1 <0>         0.1648
     41 H8          5.8719    2.8104    2.4043 H         1 <0>         0.1579
     42 H9          6.5843   -0.4745   -0.6335 H         1 <0>         0.4271
     43 H10         9.3754    0.6630    1.1982 H         1 <0>         0.1599
     44 H11        11.4668   -0.5898    1.5305 H         1 <0>         0.1491
     45 H12         7.5626   -2.8135   -0.5078 H         1 <0>         0.1474
     46 H13        11.2613   -2.4909   -1.6290 H         1 <0>         0.1382
     47 H14        12.5245   -3.2704   -3.5853 H         1 <0>         0.1657
     48 H15        14.1395   -4.8241    2.0595 H         1 <0>         0.1533
     49 H16        16.1246   -6.1884    1.0638 H         1 <0>         0.1815
@<TRIPOS>BOND
     1    1    6 ar
     2    1    2 ar
     3    1   35 1
     4    2    3 ar
     5    2   36 1
     6    3    4 ar
     7    3    7 1
     8    4    5 ar
     9    4   37 1
    10    5    6 ar
    11    6   38 1
    12    7   12 am
    13    7    8 1
    14    8    9 2
    15    8   39 1
    16    9   10 1
    17    9   40 1
    18   10   11 2
    19   10   41 1
    20   11   12 1
    21   11   14 1
    22   12   13 2
    23   14   15 2
    24   14   16 am
    25   16   17 1
    26   16   42 1
    27   17   22 ar
    28   17   18 ar
    29   18   19 ar
    30   18   43 1
    31   19   20 ar
    32   19   44 1
    33   20   21 ar
    34   20   24 1
    35   21   22 ar
    36   21   23 1
    37   22   45 1
    38   24   25 1
    39   25   30 ar
    40   25   26 ar
    41   26   27 ar
    42   26   46 1
    43   27   28 ar
    44   27   47 1
    45   28   29 ar
    46   29   33 1
    47   29   30 ar
    48   30   31 1
    49   31   32 2
    50   31   48 1
    51   32   33 1
    52   32   49 1
    53   33   34 1
@<TRIPOS>MOLECULE
CHEMBL477197
   36    39     0     0     0
SMALL
USER_CHARGES

@<TRIPOS>ATOM
      1 C1         -0.0168    1.3847    0.0097 C.ar      1 <0>        -0.0734
      2 C2          1.1616    2.1028    0.0023 C.ar      1 <0>        -0.1509
      3 C3          2.3808    1.4427   -0.0114 C.ar      1 <0>         0.1127
      4 C4          2.4085    0.0532   -0.0117 C.ar      1 <0>         0.0607
      5 C5          1.2174   -0.6637   -0.0015 C.ar      1 <0>         0.1096
      6 C6          0.0021   -0.0041    0.0020 C.ar      1 <0>        -0.1291
      7 C7         -1.3116   -0.7345   -0.0163 C.3       1 <0>         0.0091
      8 H1         -1.9318   -0.4037    0.8168 H         1 <0>         0.1097
      9 C8         -2.0129   -0.4571   -1.3205 C.ar      1 <0>        -0.0779
     10 C9         -2.6959    0.6838   -1.7124 C.ar      1 <0>        -0.1043
     11 C10        -3.2557    0.6821   -2.9862 C.ar      1 <0>         0.0796
     12 C11        -3.1345   -0.4159   -3.8281 C.ar      1 <0>         0.0844
     13 C12        -2.4489   -1.5604   -3.4334 C.ar      1 <0>        -0.1119
     14 C13        -1.8915   -1.5584   -2.1635 C.ar      1 <0>        -0.0767
     15 C14        -1.1086   -2.6429   -1.4764 C.3       1 <0>        -0.1092
     16 C15        -1.1367   -2.2593    0.0349 C.3       1 <0>         0.1052
     17 C16         0.1665   -2.6533    0.7137 C.3       1 <0>         0.0380
     18 O1          1.2602   -2.0251    0.0116 O.3       1 <0>        -0.2900
     19 O2         -2.2545   -2.8668    0.6855 O.3       1 <0>        -0.5371
     20 O3         -3.6985   -0.3715   -5.0648 O.3       1 <0>        -0.4881
     21 O4         -3.9361    1.7784   -3.4157 O.3       1 <0>        -0.4873
     22 O5          3.5998   -0.6047   -0.0226 O.3       1 <0>        -0.4731
     23 O6          3.5420    2.1503   -0.0247 O.3       1 <0>        -0.4824
     24 H2         -0.9619    1.9071    0.0260 H         1 <0>         0.1342
     25 H3          1.1341    3.1825    0.0068 H         1 <0>         0.1393
     26 H4         -2.7898    1.5371   -1.0570 H         1 <0>         0.1407
     27 H5         -2.3551   -2.4142   -4.0881 H         1 <0>         0.1413
     28 H6         -1.5859   -3.6108   -1.6293 H         1 <0>         0.0896
     29 H7         -0.0828   -2.6620   -1.8446 H         1 <0>         0.1013
     30 H8          0.1476   -2.3287    1.7541 H         1 <0>         0.0810
     31 H9          0.2860   -3.7359    0.6715 H         1 <0>         0.1177
     32 H10        -2.1981   -3.8303    0.7466 H         1 <0>         0.3851
     33 H11        -3.1135   -0.0237   -5.7517 H         1 <0>         0.3880
     34 H12        -3.3848    2.4308   -3.8691 H         1 <0>         0.3873
     35 H13         3.9521   -0.7949    0.8577 H         1 <0>         0.3853
     36 H14         3.8879    2.3553    0.8547 H         1 <0>         0.3918
@<TRIPOS>BOND
     1    1    6 ar
     2    1    2 ar
     3    1   24 1
     4    2    3 ar
     5    2   25 1
     6    3    4 ar
     7    3   23 1
     8    4    5 ar
     9    4   22 1
    10    5   18 1
    11    5    6 ar
    12    6    7 1
    13    7    8 1
    14    7   16 1
    15    7    9 1
    16    9   14 ar
    17    9   10 ar
    18   10   11 ar
    19   10   26 1
    20   11   12 ar
    21   11   21 1
    22   12   13 ar
    23   12   20 1
    24   13   14 ar
    25   13   27 1
    26   14   15 1
    27   15   16 1
    28   15   28 1
    29   15   29 1
    30   16   17 1
    31   16   19 1
    32   17   18 1
    33   17   30 1
    34   17   31 1
    35   19   32 1
    36   20   33 1
    37   21   34 1
    38   22   35 1
    39   23   36 1
@<TRIPOS>MOLECULE
CHEMBL500921
   47    50     0     0     0
SMALL
USER_CHARGES

@<TRIPOS>ATOM
      1 C1         -0.1445   -0.6525   -3.3434 C.ar      1 <0>        -0.0917
      2 C2          0.8377    0.0282   -4.0358 C.ar      1 <0>        -0.1321
      3 C3          1.2820    1.2579   -3.5796 C.ar      1 <0>         0.0847
      4 C4          0.7427    1.8076   -2.4287 C.ar      1 <0>        -0.1335
      5 C5         -0.2397    1.1301   -1.7334 C.ar      1 <0>        -0.1160
      6 C6         -0.6868   -0.1028   -2.1894 C.ar      1 <0>         0.1364
      7 N1         -1.6831   -0.7911   -1.4861 N.am      1 <0>        -0.6747
      8 C7         -1.6729   -2.1383   -1.4485 C.2       1 <0>         0.5115
      9 O1         -0.7512   -2.7519   -1.9436 O.2       1 <0>        -0.4695
     10 C8         -2.8067   -2.8823   -0.7913 C.3       1 <0>        -0.1629
     11 C9         -2.5551   -4.3653   -0.8841 C.2       1 <0>         0.5134
     12 O2         -1.5536   -4.7774   -1.4303 O.2       1 <0>        -0.4641
     13 N2         -3.4429   -5.2335   -0.3603 N.am      1 <0>        -0.6752
     14 C10        -3.1608   -6.6056   -0.3544 C.ar      1 <0>         0.1873
     15 C11        -1.8523   -7.0449   -0.2023 C.ar      1 <0>        -0.1181
     16 C12        -1.5736   -8.3976   -0.1970 C.ar      1 <0>        -0.0676
     17 C13        -2.6003   -9.3185   -0.3430 C.ar      1 <0>         0.0285
     18 C14        -3.9101   -8.8806   -0.4953 C.ar      1 <0>         0.1192
     19 C15        -4.1902   -7.5267   -0.4950 C.ar      1 <0>        -0.1729
     20 F1         -4.9102   -9.7776   -0.6380 F         1 <0>        -0.1222
     21 O3         -2.3249  -10.6502   -0.3376 O.3       1 <0>        -0.2365
     22 C16        -2.1888  -11.2773   -1.5330 C.ar      1 <0>         0.2093
     23 C17        -2.2154  -10.5624   -2.7241 C.ar      1 <0>        -0.2826
     24 C18        -2.0728  -11.2379   -3.9233 C.ar      1 <0>         0.1778
     25 N3         -1.9123  -12.5444   -3.9656 N.ar      1 <0>        -0.5171
     26 C19        -1.8786  -13.2817   -2.8616 C.ar      1 <0>         0.3162
     27 C20        -2.0110  -12.6663   -1.6045 C.ar      1 <0>        -0.1768
     28 C21        -1.9252  -13.7384   -0.6118 C.2       1 <0>        -0.1751
     29 C22        -1.7491  -14.8833   -1.2897 C.2       1 <0>         0.0521
     30 N4         -1.7275  -14.6285   -2.6357 N.pl3     1 <0>        -0.5786
     31 H1         -1.6116  -15.2989   -3.3270 H         1 <0>         0.4232
     32 F2          2.2431    1.9220   -4.2581 F         1 <0>        -0.1384
     33 H2         -0.4936   -1.6096   -3.7017 H         1 <0>         0.1445
     34 H3          1.2598   -0.3990   -4.9334 H         1 <0>         0.1403
     35 H4          1.0908    2.7666   -2.0744 H         1 <0>         0.1407
     36 H5         -0.6595    1.5589   -0.8355 H         1 <0>         0.1369
     37 H6         -2.3805   -0.2983   -1.0261 H         1 <0>         0.4126
     38 H7         -2.8739   -2.5901    0.2567 H         1 <0>         0.1329
     39 H8         -3.7416   -2.6401   -1.2967 H         1 <0>         0.1328
     40 H9         -4.2772   -4.9083    0.0126 H         1 <0>         0.4155
     41 H10        -1.0522   -6.3285   -0.0885 H         1 <0>         0.1517
     42 H11        -0.5556   -8.7384   -0.0793 H         1 <0>         0.1487
     43 H12        -5.2086   -7.1856   -0.6089 H         1 <0>         0.1490
     44 H13        -2.3465   -9.4905   -2.7141 H         1 <0>         0.1394
     45 H14        -2.0938  -10.6798   -4.8477 H         1 <0>         0.1661
     46 H15        -1.9908  -13.6290    0.4606 H         1 <0>         0.1533
     47 H16        -1.6481  -15.8607   -0.8414 H         1 <0>         0.1816
@<TRIPOS>BOND
     1    1    6 ar
     2    1    2 ar
     3    1   33 1
     4    2    3 ar
     5    2   34 1
     6    3    4 ar
     7    3   32 1
     8    4    5 ar
     9    4   35 1
    10    5    6 ar
    11    5   36 1
    12    6    7 1
    13    7    8 am
    14    7   37 1
    15    8    9 2
    16    8   10 1
    17   10   11 1
    18   10   38 1
    19   10   39 1
    20   11   12 2
    21   11   13 am
    22   13   14 1
    23   13   40 1
    24   14   19 ar
    25   14   15 ar
    26   15   16 ar
    27   15   41 1
    28   16   17 ar
    29   16   42 1
    30   17   18 ar
    31   17   21 1
    32   18   19 ar
    33   18   20 1
    34   19   43 1
    35   21   22 1
    36   22   27 ar
    37   22   23 ar
    38   23   24 ar
    39   23   44 1
    40   24   25 ar
    41   24   45 1
    42   25   26 ar
    43   26   30 1
    44   26   27 ar
    45   27   28 1
    46   28   29 2
    47   28   46 1
    48   29   30 1
    49   29   47 1
    50   30   31 1
@<TRIPOS>MOLECULE
CHEMBL558306
   30    33     0     0     0
SMALL
USER_CHARGES

@<TRIPOS>ATOM
      1 C1          0.0547    1.8117    0.0511 C.2       1 <0>        -0.1185
      2 C2          1.3632    2.0992   -0.0404 C.2       1 <0>         0.0419
      3 N1          2.1004    0.9497    0.0415 N.pl3     1 <0>        -0.8228
      4 C3          1.2622   -0.1318    0.1914 C.ar      1 <0>         0.1005
      5 C4         -0.0574    0.3587    0.2042 C.ar      1 <0>         0.0635
      6 N2         -1.0860   -0.4732    0.3371 N.ar      1 <0>        -0.4032
      7 C5         -0.9092   -1.7705    0.4600 C.ar      1 <0>         0.0483
      8 C6          0.3674   -2.3278    0.4565 C.ar      1 <0>         0.1979
      9 C7          1.4749   -1.5004    0.3205 C.ar      1 <0>        -0.1787
     10 N3          0.5329   -3.7103    0.5894 N.pl3     1 <0>        -0.8621
     11 S1          3.7530    0.8711   -0.0296 S.o2      1 <0>         2.7055
     12 O1          4.0711   -0.1531   -0.9618 O.2       1 <0>        -0.9208
     13 O2          4.2171    2.2061   -0.1767 O.2       1 <0>        -0.8971
     14 C8          4.3162    0.3126    1.5438 C.2       1 <0>        -0.5884
     15 C9          4.4301    1.0589    2.6560 C.2       1 <0>         0.2194
     16 N4          4.8913    0.2772    3.6448 N.2       1 <0>        -0.4337
     17 C10         5.0671   -0.9279    3.1839 C.2       1 <0>         0.2260
     18 N5          4.7178   -0.9836    1.8606 N.pl3     1 <0>        -0.3753
     19 C11         4.8450   -2.2032    1.2323 C.2       1 <0>         0.0100
     20 C12         5.2859   -3.2703    1.8969 C.2       1 <0>        -0.1577
     21 S2          5.5748   -2.5967    3.5257 S.3       1 <0>         0.1949
     22 Cl1         4.0467    2.7466    2.7904 Cl        1 <0>         0.0537
     23 H1         -0.7612    2.5187    0.0220 H         1 <0>         0.1685
     24 H2          1.7730    3.0912   -0.1611 H         1 <0>         0.2003
     25 H3         -1.7692   -2.4153    0.5660 H         1 <0>         0.1645
     26 H4          2.4746   -1.9090    0.3142 H         1 <0>         0.1278
     27 H5         -0.2429   -4.2847    0.6846 H         1 <0>         0.4076
     28 H6          1.4235   -4.0946    0.5865 H         1 <0>         0.4012
     29 H7          4.5836   -2.2953    0.1885 H         1 <0>         0.1947
     30 H8          5.4354   -4.2791    1.5416 H         1 <0>         0.2323
@<TRIPOS>BOND
     1    1    5 1
     2    1    2 2
     3    1   23 1
     4    2    3 1
     5    2   24 1
     6    3    4 1
     7    3   11 1
     8    4    9 ar
     9    4    5 ar
    10    5    6 ar
    11    6    7 ar
    12    7    8 ar
    13    7   25 1
    14    8    9 ar
    15    8   10 1
    16    9   26 1
    17   10   27 1
    18   10   28 1
    19   11   12 2
    20   11   13 2
    21   11   14 1
    22   14   18 1
    23   14   15 2
    24   15   16 1
    25   15   22 1
    26   16   17 2
    27   17   21 1
    28   17   18 1
    29   18   19 1
    30   19   20 2
    31   19   29 1
    32   20   21 1
    33   20   30 1
@<TRIPOS>MOLECULE
CHEMBL558306__1
   31    34     0     0     0
SMALL
USER_CHARGES

@<TRIPOS>ATOM
      1 C1          0.0547    1.8117    0.0511 C.2       1 <0>        -0.1580
      2 C2          1.3632    2.0992   -0.0404 C.2       1 <0>         0.1238
      3 N1          2.1004    0.9497    0.0415 N.pl3     1 <0>        -0.8230
      4 C3          1.2622   -0.1318    0.1914 C.ar      1 <0>         0.1413
      5 C4         -0.0574    0.3587    0.2042 C.ar      1 <0>         0.0874
      6 N2         -1.0860   -0.4732    0.3371 N.ar      1 <0>        -0.3792
      7 C5         -0.9092   -1.7705    0.4605 C.ar      1 <0>         0.0789
      8 C6          0.3674   -2.3278    0.4569 C.ar      1 <0>         0.2279
      9 C7          1.4749   -1.5004    0.3205 C.ar      1 <0>        -0.0944
     10 N3          0.5330   -3.7102    0.5903 N.pl3     1 <0>        -0.8315
     11 S1          3.7530    0.8711   -0.0296 S.o2      1 <0>         2.6934
     12 O1          4.0711   -0.1531   -0.9618 O.2       1 <0>        -0.9018
     13 O2          4.2171    2.2061   -0.1767 O.2       1 <0>        -0.8693
     14 C8          4.3162    0.3126    1.5438 C.2       1 <0>        -0.6066
     15 C9          4.4301    1.0589    2.6560 C.2       1 <0>         0.2276
     16 N4          4.8913    0.2772    3.6448 N.2       1 <0>        -0.4280
     17 C10         5.0671   -0.9279    3.1839 C.2       1 <0>         0.2308
     18 N5          4.7178   -0.9836    1.8606 N.pl3     1 <0>        -0.3787
     19 C11         4.8450   -2.2032    1.2323 C.2       1 <0>        -0.0094
     20 C12         5.2859   -3.2703    1.8969 C.2       1 <0>        -0.1474
     21 S2          5.5748   -2.5967    3.5257 S.3       1 <0>         0.2222
     22 Cl1         4.0467    2.7466    2.7904 Cl        1 <0>         0.0588
     23 H1         -0.7612    2.5187    0.0220 H         1 <0>         0.1950
     24 H2          1.7730    3.0912   -0.1611 H         1 <0>         0.2261
     25 H3         -1.7691   -2.4152    0.5668 H         1 <0>         0.2165
     26 H4          2.4746   -1.9090    0.3142 H         1 <0>         0.1640
     27 H5         -0.2428   -4.2846    0.6858 H         1 <0>         0.4231
     28 H6          1.4236   -4.0945    0.5874 H         1 <0>         0.4228
     29 H7          4.5836   -2.2953    0.1885 H         1 <0>         0.1950
     30 H8          5.4354   -4.2791    1.5416 H         1 <0>         0.2363
     31 H9         -1.9874   -0.1150    0.3436 H         1 <0>         0.4565
@<TRIPOS>BOND
     1    1    5 1
     2    1    2 2
     3    1   23 1
     4    2    3 1
     5    2   24 1
     6    3    4 1
     7    3   11 1
     8    4    9 ar
     9    4    5 ar
    10    5    6 ar
    11    6    7 ar
    12    6   31 1
    13    7    8 ar
    14    7   25 1
    15    8    9 ar
    16    8   10 1
    17    9   26 1
    18   10   27 1
    19   10   28 1
    20   11   12 2
    21   11   13 2
    22   11   14 1
    23   14   18 1
    24   14   15 2
    25   15   16 1
    26   15   22 1
    27   16   17 2
    28   17   21 1
    29   17   18 1
    30   18   19 1
    31   19   20 2
    32   19   29 1
    33   20   21 1
    34   20   30 1
@<TRIPOS>MOLECULE
CHEMBL261641
   69    73     0     0     0
SMALL
USER_CHARGES

@<TRIPOS>ATOM
      1 C1         -1.3854    0.6670   -0.0767 C.3       1 <0>        -0.0957
      2 C2         -0.4323   -0.5002   -0.0648 C.2       1 <0>        -0.0506
      3 C3          0.2343   -1.0297   -1.1521 C.2       1 <0>        -0.0231
      4 N1          1.0038   -2.0851   -0.7079 N.pl3     1 <0>        -0.4953
      5 H1          1.5753   -2.6368   -1.2646 H         1 <0>         0.4239
      6 C4          0.8368   -2.2279    0.6175 C.2       1 <0>         0.1153
      7 C5         -0.0448   -1.2585    1.0606 C.2       1 <0>        -0.2237
      8 C6         -0.4974   -1.0570    2.4490 C.2       1 <0>         0.5982
      9 O1         -1.4888   -1.6326    2.8550 O.2       1 <0>        -0.5334
     10 N2          0.1874   -0.2348    3.2685 N.am      1 <0>        -0.6074
     11 C7          1.3854    0.4757    2.7960 C.3       1 <0>         0.1160
     12 C8          1.2315    1.9637    3.1283 C.3       1 <0>         0.0400
     13 N3          0.9441    2.1151    4.5609 N.3       1 <0>        -0.5431
     14 C9         -0.3331    1.4833    4.9178 C.3       1 <0>         0.0404
     15 C10        -0.2469   -0.0196    4.6571 C.3       1 <0>         0.1151
     16 C11         0.9595    3.5304    4.9542 C.3       1 <0>         0.0247
     17 C12         1.5039   -3.2684    1.4796 C.3       1 <0>        -0.0994
     18 C13         0.1439   -0.5716   -2.4846 C.2       1 <0>         0.0901
     19 C14         0.2532   -1.4658   -3.5309 C.2       1 <0>        -0.2083
     20 C15         0.3360   -1.1553   -4.9755 C.ar      1 <0>        -0.1117
     21 C16         0.3319    0.0339   -5.6972 C.ar      1 <0>         0.0376
     22 C17         0.4254   -0.0007   -7.0737 C.ar      1 <0>        -0.6977
     23 C18         0.5224   -1.2150   -7.7330 C.ar      1 <0>         0.0132
     24 C19         0.5268   -2.4004   -7.0263 C.ar      1 <0>        -0.1530
     25 C20         0.4344   -2.3860   -5.6388 C.ar      1 <0>         0.1981
     26 N4          0.4170   -3.4120   -4.7020 N.am      1 <0>        -0.6497
     27 C21         0.3187   -2.9314   -3.4509 C.2       1 <0>         0.5589
     28 O2          0.2868   -3.5947   -2.4297 O.2       1 <0>        -0.5027
     29 S1          0.4208    1.5020   -7.9939 S.o2      1 <0>         2.6866
     30 O3         -0.0301    1.1761   -9.3014 O.2       1 <0>        -0.9426
     31 O4         -0.2285    2.4722   -7.1838 O.2       1 <0>        -0.9399
     32 N5          1.9965    1.9888   -8.1442 N.pl3     1 <0>        -0.9503
     33 C22         2.7673    1.6183   -9.3337 C.3       1 <0>         0.0873
     34 C23         2.5905    2.7527   -7.1370 C.ar      1 <0>         0.1435
     35 C24         3.6993    2.2655   -6.4561 C.ar      1 <0>        -0.1129
     36 C25         4.2850    3.0229   -5.4610 C.ar      1 <0>        -0.0974
     37 C26         3.7691    4.2655   -5.1412 C.ar      1 <0>        -0.1057
     38 C27         2.6650    4.7543   -5.8171 C.ar      1 <0>        -0.0228
     39 C28         2.0777    4.0032   -6.8181 C.ar      1 <0>        -0.0987
     40 Cl1         2.0205    6.3145   -5.4118 Cl        1 <0>        -0.0584
     41 H2         -0.8300    1.5912    0.0831 H         1 <0>         0.0744
     42 H3         -1.8943    0.7109   -1.0396 H         1 <0>         0.0716
     43 H4         -2.1213    0.5434    0.7179 H         1 <0>         0.0707
     44 H5          2.2682    0.0781    3.2967 H         1 <0>         0.0757
     45 H6          1.4845    0.3496    1.7179 H         1 <0>         0.0918
     46 H7          2.1557    2.4881    2.8853 H         1 <0>         0.0877
     47 H8          0.4109    2.3833    2.5463 H         1 <0>         0.0402
     48 H9         -0.5437    1.6593    5.9727 H         1 <0>         0.0893
     49 H10        -1.1319    1.9097    4.3110 H         1 <0>         0.0393
     50 H11        -1.2265   -0.4731    4.8089 H         1 <0>         0.0971
     51 H12         0.4760   -0.4657    5.3402 H         1 <0>         0.0765
     52 H13         0.2036    4.0734    4.3868 H         1 <0>         0.0266
     53 H14         0.7438    3.6138    6.0194 H         1 <0>         0.0707
     54 H15         1.9424    3.9541    4.7482 H         1 <0>         0.0708
     55 H16         2.4491   -2.8769    1.8558 H         1 <0>         0.0828
     56 H17         0.8537   -3.5164    2.3186 H         1 <0>         0.0876
     57 H18         1.6916   -4.1645    0.8881 H         1 <0>         0.0764
     58 H19        -0.0106    0.4782   -2.6854 H         1 <0>         0.1582
     59 H20         0.2556    0.9803   -5.1825 H         1 <0>         0.1456
     60 H21         0.5948   -1.2344   -8.8104 H         1 <0>         0.1495
     61 H22         0.6025   -3.3409   -7.5518 H         1 <0>         0.1409
     62 H23         0.4731   -4.3549   -4.9227 H         1 <0>         0.4223
     63 H24         2.6480    2.3865  -10.0978 H         1 <0>         0.0705
     64 H25         3.8212    1.5285   -9.0702 H         1 <0>         0.0805
     65 H26         2.4063    0.6644   -9.7180 H         1 <0>         0.0815
     66 H27         4.1025    1.2949   -6.7045 H         1 <0>         0.1343
     67 H28         5.1468    2.6443   -4.9317 H         1 <0>         0.1385
     68 H29         4.2288    4.8555   -4.3621 H         1 <0>         0.1384
     69 H30         1.2187    4.3867   -7.3487 H         1 <0>         0.1454
@<TRIPOS>BOND
     1    1    2 1
     2    1   41 1
     3    1   42 1
     4    1   43 1
     5    2    7 1
     6    2    3 2
     7    3    4 1
     8    3   18 1
     9    4    5 1
    10    4    6 1
    11    6    7 2
    12    6   17 1
    13    7    8 1
    14    8    9 2
    15    8   10 am
    16   10   15 1
    17   10   11 1
    18   11   12 1
    19   11   44 1
    20   11   45 1
    21   12   13 1
    22   12   46 1
    23   12   47 1
    24   13   14 1
    25   13   16 1
    26   14   15 1
    27   14   48 1
    28   14   49 1
    29   15   50 1
    30   15   51 1
    31   16   52 1
    32   16   53 1
    33   16   54 1
    34   17   55 1
    35   17   56 1
    36   17   57 1
    37   18   19 2
    38   18   58 1
    39   19   27 1
    40   19   20 1
    41   20   25 ar
    42   20   21 ar
    43   21   22 ar
    44   21   59 1
    45   22   23 ar
    46   22   29 1
    47   23   24 ar
    48   23   60 1
    49   24   25 ar
    50   24   61 1
    51   25   26 1
    52   26   27 am
    53   26   62 1
    54   27   28 2
    55   29   30 2
    56   29   31 2
    57   29   32 1
    58   32   33 1
    59   32   34 1
    60   33   63 1
    61   33   64 1
    62   33   65 1
    63   34   39 ar
    64   34   35 ar
    65   35   36 ar
    66   35   66 1
    67   36   37 ar
    68   36   67 1
    69   37   38 ar
    70   37   68 1
    71   38   39 ar
    72   38   40 1
    73   39   69 1
@<TRIPOS>MOLECULE
CHEMBL261641__1
   70    74     0     0     0
SMALL
USER_CHARGES

@<TRIPOS>ATOM
      1 C1         -1.3854    0.6670   -0.0767 C.3       1 <0>        -0.0952
      2 C2         -0.4323   -0.5002   -0.0648 C.2       1 <0>        -0.0625
      3 C3          0.2343   -1.0297   -1.1521 C.2       1 <0>        -0.0036
      4 N1          1.0038   -2.0851   -0.7079 N.pl3     1 <0>        -0.4919
      5 H1          1.5753   -2.6368   -1.2646 H         1 <0>         0.4277
      6 C4          0.8368   -2.2279    0.6175 C.2       1 <0>         0.1165
      7 C5         -0.0448   -1.2585    1.0606 C.2       1 <0>        -0.2435
      8 C6         -0.4974   -1.0570    2.4490 C.2       1 <0>         0.6118
      9 O1         -1.4888   -1.6326    2.8550 O.2       1 <0>        -0.5023
     10 N2          0.1874   -0.2348    3.2685 N.am      1 <0>        -0.6292
     11 C7          1.3857    0.4765    2.7973 C.3       1 <0>         0.0880
     12 C8          1.2385    1.9610    3.1475 C.3       1 <0>        -0.0225
     13 N3          0.9774    2.1000    4.5858 N.4       1 <0>        -0.3855
     14 C9         -0.3129    1.4850    4.9216 C.3       1 <0>        -0.0202
     15 C10        -0.2458   -0.0186    4.6576 C.3       1 <0>         0.0867
     16 C11         0.9456    3.5253    4.9403 C.3       1 <0>        -0.0471
     17 C12         1.5039   -3.2684    1.4796 C.3       1 <0>        -0.1027
     18 C13         0.1439   -0.5716   -2.4846 C.2       1 <0>         0.0648
     19 C14         0.2532   -1.4658   -3.5309 C.2       1 <0>        -0.1821
     20 C15         0.3360   -1.1553   -4.9755 C.ar      1 <0>        -0.1231
     21 C16         0.3319    0.0339   -5.6972 C.ar      1 <0>         0.0424
     22 C17         0.4254   -0.0007   -7.0737 C.ar      1 <0>        -0.6976
     23 C18         0.5224   -1.2150   -7.7330 C.ar      1 <0>         0.0199
     24 C19         0.5268   -2.4004   -7.0263 C.ar      1 <0>        -0.1510
     25 C20         0.4344   -2.3860   -5.6388 C.ar      1 <0>         0.2004
     26 N4          0.4170   -3.4120   -4.7020 N.am      1 <0>        -0.6480
     27 C21         0.3187   -2.9314   -3.4509 C.2       1 <0>         0.5591
     28 O2          0.2868   -3.5947   -2.4297 O.2       1 <0>        -0.5037
     29 S1          0.4208    1.5020   -7.9939 S.o2      1 <0>         2.6862
     30 O3         -0.0301    1.1761   -9.3014 O.2       1 <0>        -0.9383
     31 O4         -0.2285    2.4722   -7.1838 O.2       1 <0>        -0.9401
     32 N5          1.9965    1.9888   -8.1442 N.pl3     1 <0>        -0.9503
     33 C22         2.7673    1.6183   -9.3337 C.3       1 <0>         0.0859
     34 C23         2.5905    2.7527   -7.1370 C.ar      1 <0>         0.1452
     35 C24         3.6993    2.2655   -6.4561 C.ar      1 <0>        -0.1130
     36 C25         4.2850    3.0229   -5.4610 C.ar      1 <0>        -0.0984
     37 C26         3.7691    4.2655   -5.1412 C.ar      1 <0>        -0.1074
     38 C27         2.6650    4.7543   -5.8171 C.ar      1 <0>        -0.0232
     39 C28         2.0777    4.0032   -6.8181 C.ar      1 <0>        -0.0982
     40 Cl1         2.0205    6.3145   -5.4118 Cl        1 <0>        -0.0579
     41 H2         -0.8300    1.5912    0.0831 H         1 <0>         0.0706
     42 H3         -1.8943    0.7109   -1.0396 H         1 <0>         0.0763
     43 H4         -2.1213    0.5434    0.7179 H         1 <0>         0.0692
     44 H5          2.2698    0.0702    3.2888 H         1 <0>         0.0949
     45 H6          1.4785    0.3624    1.7173 H         1 <0>         0.1338
     46 H7          2.1582    2.4875    2.8925 H         1 <0>         0.1441
     47 H8          0.4078    2.3865    2.5845 H         1 <0>         0.1345
     48 H9         -0.5365    1.6609    5.9738 H         1 <0>         0.1448
     49 H10        -1.0967    1.9250    4.3049 H         1 <0>         0.1338
     50 H11        -1.2312   -0.4599    4.8069 H         1 <0>         0.1365
     51 H12         0.4707   -0.4758    5.3401 H         1 <0>         0.0952
     52 H13         0.1556    4.0222    4.3772 H         1 <0>         0.1225
     53 H14         0.7519    3.6299    6.0078 H         1 <0>         0.1258
     54 H15         1.9058    3.9812    4.6988 H         1 <0>         0.1256
     55 H16         2.4491   -2.8769    1.8558 H         1 <0>         0.0820
     56 H17         0.8537   -3.5164    2.3186 H         1 <0>         0.0867
     57 H18         1.6916   -4.1645    0.8881 H         1 <0>         0.0815
     58 H19        -0.0106    0.4782   -2.6854 H         1 <0>         0.1603
     59 H20         0.2556    0.9803   -5.1825 H         1 <0>         0.1460
     60 H21         0.5948   -1.2344   -8.8104 H         1 <0>         0.1527
     61 H22         0.6025   -3.3409   -7.5518 H         1 <0>         0.1440
     62 H23         0.4731   -4.3549   -4.9227 H         1 <0>         0.4254
     63 H24         2.6480    2.3865  -10.0978 H         1 <0>         0.0725
     64 H25         3.8212    1.5285   -9.0702 H         1 <0>         0.0813
     65 H26         2.4063    0.6644   -9.7180 H         1 <0>         0.0826
     66 H27         4.1025    1.2949   -6.7045 H         1 <0>         0.1347
     67 H28         5.1468    2.6443   -4.9317 H         1 <0>         0.1378
     68 H29         4.2288    4.8555   -4.3621 H         1 <0>         0.1373
     69 H30         1.2187    4.3867   -7.3487 H         1 <0>         0.1463
     70 H31         1.7118    1.6431    5.1054 H         1 <0>         0.4252
@<TRIPOS>BOND
     1    1    2 1
     2    1   41 1
     3    1   42 1
     4    1   43 1
     5    2    7 1
     6    2    3 2
     7    3    4 1
     8    3   18 1
     9    4    5 1
    10    4    6 1
    11    6    7 2
    12    6   17 1
    13    7    8 1
    14    8    9 2
    15    8   10 am
    16   10   15 1
    17   10   11 1
    18   11   12 1
    19   11   44 1
    20   11   45 1
    21   12   13 1
    22   12   46 1
    23   12   47 1
    24   13   14 1
    25   13   16 1
    26   13   70 1
    27   14   15 1
    28   14   48 1
    29   14   49 1
    30   15   50 1
    31   15   51 1
    32   16   52 1
    33   16   53 1
    34   16   54 1
    35   17   55 1
    36   17   56 1
    37   17   57 1
    38   18   19 2
    39   18   58 1
    40   19   27 1
    41   19   20 1
    42   20   25 ar
    43   20   21 ar
    44   21   22 ar
    45   21   59 1
    46   22   23 ar
    47   22   29 1
    48   23   24 ar
    49   23   60 1
    50   24   25 ar
    51   24   61 1
    52   25   26 1
    53   26   27 am
    54   26   62 1
    55   27   28 2
    56   29   30 2
    57   29   31 2
    58   29   32 1
    59   32   33 1
    60   32   34 1
    61   33   63 1
    62   33   64 1
    63   33   65 1
    64   34   39 ar
    65   34   35 ar
    66   35   36 ar
    67   35   66 1
    68   36   37 ar
    69   36   67 1
    70   37   38 ar
    71   37   68 1
    72   38   39 ar
    73   38   40 1
    74   39   69 1
@<TRIPOS>MOLECULE
CHEMBL1097142
   50    53     0     0     0
SMALL
USER_CHARGES

@<TRIPOS>ATOM
      1 C1          0.2046    1.7609    2.4989 C.ar      1 <0>        -0.2230
      2 C2          1.1845    2.4008    1.7607 C.ar      1 <0>         0.0062
      3 C3          2.0612    1.6187    1.0003 C.ar      1 <0>        -0.2514
      4 C4          1.9103    0.2211    1.0182 C.ar      1 <0>         0.4455
      5 N1          0.9541   -0.3393    1.7427 N.ar      1 <0>        -0.5373
      6 C5          0.1187    0.3805    2.4659 C.ar      1 <0>         0.1822
      7 N2          2.7650   -0.5729    0.2746 N.pl3     1 <0>        -0.6413
      8 C6          2.5323   -1.9495    0.1750 C.ar      1 <0>         0.1871
      9 C7          1.2309   -2.4331    0.1368 C.ar      1 <0>        -0.0890
     10 C8          1.0010   -3.7914    0.0386 C.ar      1 <0>        -0.1422
     11 C9          2.0691   -4.6737   -0.0214 C.ar      1 <0>         0.0439
     12 C10         3.3716   -4.1919    0.0171 C.ar      1 <0>         0.1279
     13 C11         3.6026   -2.8318    0.1087 C.ar      1 <0>        -0.1493
     14 F1          4.4121   -5.0517   -0.0405 F         1 <0>        -0.1188
     15 O1          1.8415   -6.0113   -0.1177 O.3       1 <0>        -0.2426
     16 C12         0.5562   -6.4442   -0.0665 C.ar      1 <0>         0.2580
     17 C13        -0.2816   -6.3275   -1.1755 C.ar      1 <0>        -0.1947
     18 C14        -1.5814   -6.7778   -1.0880 C.ar      1 <0>         0.1702
     19 N3         -2.0397   -7.3148    0.0277 N.ar      1 <0>        -0.5080
     20 C15        -1.2776   -7.4440    1.1041 C.ar      1 <0>         0.4702
     21 C16         0.0445   -7.0198    1.0905 C.ar      1 <0>        -0.2107
     22 N4         -1.8053   -8.0153    2.2565 N.pl3     1 <0>        -0.8143
     23 C17         3.1230    2.2487    0.1950 C.2       1 <0>         0.5823
     24 O2          3.9418    1.5570   -0.3798 O.2       1 <0>        -0.5273
     25 N5          3.1866    3.5913    0.0957 N.am      1 <0>        -0.6568
     26 C18         4.1282    4.1871   -0.7532 C.ar      1 <0>         0.1006
     27 C19         4.5494    3.5247   -1.8980 C.ar      1 <0>        -0.0670
     28 C20         5.4781    4.1137   -2.7340 C.ar      1 <0>        -0.1401
     29 C21         5.9898    5.3644   -2.4316 C.ar      1 <0>         0.1226
     30 C22         5.5722    6.0284   -1.2906 C.ar      1 <0>        -0.1692
     31 C23         4.6383    5.4454   -0.4534 C.ar      1 <0>         0.1068
     32 F2          4.2264    6.0953    0.6571 F         1 <0>        -0.1265
     33 F3          6.8982    5.9376   -3.2509 F         1 <0>        -0.1257
     34 H1         -0.4853    2.3346    3.1000 H         1 <0>         0.1481
     35 H2          1.2704    3.4773    1.7707 H         1 <0>         0.1429
     36 H3         -0.6466   -0.1169    3.0432 H         1 <0>         0.1682
     37 H4          3.5255   -0.1756   -0.1778 H         1 <0>         0.4383
     38 H5          0.3984   -1.7467    0.1843 H         1 <0>         0.1493
     39 H6         -0.0113   -4.1666    0.0090 H         1 <0>         0.1342
     40 H7          4.6149   -2.4561    0.1339 H         1 <0>         0.1565
     41 H8          0.0839   -5.8890   -2.0923 H         1 <0>         0.1901
     42 H9         -2.2342   -6.6897   -1.9439 H         1 <0>         0.2171
     43 H10         0.6648   -7.1313    1.9676 H         1 <0>         0.1890
     44 H11        -2.7271   -8.3169    2.2700 H         1 <0>         0.4249
     45 H12         2.5802    4.1451    0.6121 H         1 <0>         0.4172
     46 H13         4.1514    2.5491   -2.1349 H         1 <0>         0.1589
     47 H14         5.8058    3.5978   -3.6245 H         1 <0>         0.1505
     48 H15         5.9725    7.0038   -1.0566 H         1 <0>         0.1571
     49 H16        -2.9589   -7.6227    0.0605 H         1 <0>         0.4467
     50 H17        -1.2517   -8.1122    3.0471 H         1 <0>         0.4429
@<TRIPOS>BOND
     1    1    6 ar
     2    1    2 ar
     3    1   34 1
     4    2    3 ar
     5    2   35 1
     6    3    4 ar
     7    3   23 1
     8    4    5 ar
     9    4    7 1
    10    5    6 ar
    11    6   36 1
    12    7    8 1
    13    7   37 1
    14    8   13 ar
    15    8    9 ar
    16    9   10 ar
    17    9   38 1
    18   10   11 ar
    19   10   39 1
    20   11   12 ar
    21   11   15 1
    22   12   13 ar
    23   12   14 1
    24   13   40 1
    25   15   16 1
    26   16   17 ar
    27   16   21 ar
    28   17   41 1
    29   17   18 ar
    30   18   42 1
    31   18   19 ar
    32   19   49 1
    33   19   20 ar
    34   20   22 1
    35   20   21 ar
    36   21   43 1
    37   22   44 1
    38   22   50 1
    39   23   24 2
    40   23   25 am
    41   25   26 1
    42   25   45 1
    43   26   31 ar
    44   26   27 ar
    45   27   28 ar
    46   27   46 1
    47   28   29 ar
    48   28   47 1
    49   29   30 ar
    50   29   33 1
    51   30   31 ar
    52   30   48 1
    53   31   32 1
@<TRIPOS>MOLECULE
CHEMBL257546
   55    59     0     0     0
SMALL
USER_CHARGES

@<TRIPOS>ATOM
      1 C1         10.8471    0.9818   -3.5873 C.ar      1 <0>        -0.1129
      2 C2         10.7654   -0.3973   -3.5379 C.ar      1 <0>        -0.1181
      3 C3          9.7516   -1.0043   -2.8206 C.ar      1 <0>        -0.1014
      4 C4          8.8197   -0.2323   -2.1523 C.ar      1 <0>        -0.0804
      5 C5          8.9020    1.1467   -2.2010 C.ar      1 <0>        -0.1014
      6 C6          9.9150    1.7538   -2.9194 C.ar      1 <0>        -0.1181
      7 C7          7.7139   -0.8941   -1.3712 C.3       1 <0>        -0.0930
      8 C8          8.1685   -1.1234    0.0472 C.2       1 <0>         0.4823
      9 O1          9.2806   -0.7831    0.3899 O.2       1 <0>        -0.3883
     10 N1          7.3389   -1.7068    0.9348 N.am      1 <0>        -0.6407
     11 C9          7.7454   -1.9119    2.2033 C.2       1 <0>         0.5054
     12 S1          9.3158   -1.4314    2.6872 S.2       1 <0>        -0.4713
     13 N2          6.9158   -2.4953    3.0909 N.pl3     1 <0>        -0.6252
     14 C10         7.3761   -2.8148    4.3744 C.ar      1 <0>         0.1661
     15 C11         6.5608   -2.6000    5.4779 C.ar      1 <0>        -0.1174
     16 C12         7.0145   -2.9145    6.7439 C.ar      1 <0>        -0.0788
     17 C13         8.2843   -3.4453    6.9144 C.ar      1 <0>         0.0431
     18 C14         9.1012   -3.6608    5.8114 C.ar      1 <0>         0.1098
     19 C15         8.6454   -3.3515    4.5432 C.ar      1 <0>        -0.1024
     20 F1         10.3384   -4.1775    5.9775 F         1 <0>        -0.1182
     21 O2          8.7301   -3.7546    8.1615 O.3       1 <0>        -0.2365
     22 C16         9.4953   -2.8400    8.8097 C.ar      1 <0>         0.2054
     23 C17         9.8934   -1.6635    8.1824 C.ar      1 <0>        -0.2191
     24 C18        10.6749   -0.7669    8.8961 C.ar      1 <0>         0.1597
     25 N3         11.0472   -0.9885   10.1294 N.ar      1 <0>        -0.4647
     26 C19        10.7010   -2.1077   10.8075 C.ar      1 <0>         0.1320
     27 C20         9.8998   -3.0458   10.1193 C.ar      1 <0>        -0.1967
     28 S2          9.6541   -4.3380   11.3097 S.3       1 <0>         0.1619
     29 C21        10.5837   -3.6263   12.6568 C.2       1 <0>        -0.2011
     30 C22        11.0377   -2.4572   12.1268 C.2       1 <0>        -0.0531
     31 C23        10.8135   -4.1740   14.0034 C.2       1 <0>         0.5240
     32 O3         11.4797   -3.5492   14.8095 O.2       1 <0>        -0.4131
     33 C24        10.2409   -5.4710   14.3746 C.2       1 <0>        -0.1104
     34 C25        10.3714   -6.0900   15.5872 C.2       1 <0>        -0.1025
     35 C26         9.6675   -7.3000   15.4999 C.2       1 <0>        -0.2291
     36 C27         9.1443   -7.3675   14.2547 C.2       1 <0>         0.0127
     37 O4          9.4876   -6.2613   13.5820 O.3       1 <0>        -0.1541
     38 H1         11.6418    1.4560   -4.1440 H         1 <0>         0.1233
     39 H2         11.4934   -1.0004   -4.0600 H         1 <0>         0.1239
     40 H3          9.6873   -2.0817   -2.7826 H         1 <0>         0.1202
     41 H4          8.1738    1.7499   -1.6792 H         1 <0>         0.1202
     42 H5          9.9790    2.8312   -2.9578 H         1 <0>         0.1239
     43 H6          6.8339   -0.2509   -1.3711 H         1 <0>         0.1094
     44 H7          7.4652   -1.8500   -1.8321 H         1 <0>         0.1093
     45 H8          6.4491   -1.9791    0.6606 H         1 <0>         0.4127
     46 H9          5.9999   -2.6939    2.8407 H         1 <0>         0.4134
     47 H10         5.5718   -2.1867    5.3461 H         1 <0>         0.1457
     48 H11         6.3801   -2.7465    7.6017 H         1 <0>         0.1522
     49 H12         9.2781   -3.5229    3.6849 H         1 <0>         0.1640
     50 H13         9.6013   -1.4537    7.1640 H         1 <0>         0.1536
     51 H14        10.9877    0.1480    8.4150 H         1 <0>         0.1717
     52 H15        11.6446   -1.7927   12.7239 H         1 <0>         0.1614
     53 H16        10.9119   -5.7190   16.4455 H         1 <0>         0.1641
     54 H17         9.5632   -8.0392   16.2805 H         1 <0>         0.1612
     55 H18         8.5450   -8.1784   13.8676 H         1 <0>         0.2152
@<TRIPOS>BOND
     1    1    6 ar
     2    1    2 ar
     3    1   38 1
     4    2    3 ar
     5    2   39 1
     6    3    4 ar
     7    3   40 1
     8    4    5 ar
     9    4    7 1
    10    5    6 ar
    11    5   41 1
    12    6   42 1
    13    7    8 1
    14    7   43 1
    15    7   44 1
    16    8    9 2
    17    8   10 am
    18   10   11 1
    19   10   45 1
    20   11   12 2
    21   11   13 1
    22   13   14 1
    23   13   46 1
    24   14   19 ar
    25   14   15 ar
    26   15   16 ar
    27   15   47 1
    28   16   17 ar
    29   16   48 1
    30   17   18 ar
    31   17   21 1
    32   18   19 ar
    33   18   20 1
    34   19   49 1
    35   21   22 1
    36   22   27 ar
    37   22   23 ar
    38   23   24 ar
    39   23   50 1
    40   24   25 ar
    41   24   51 1
    42   25   26 ar
    43   26   30 1
    44   26   27 ar
    45   27   28 1
    46   28   29 1
    47   29   30 2
    48   29   31 1
    49   30   52 1
    50   31   32 2
    51   31   33 1
    52   33   37 1
    53   33   34 2
    54   34   35 1
    55   34   53 1
    56   35   36 2
    57   35   54 1
    58   36   37 1
    59   36   55 1
@<TRIPOS>MOLECULE
CHEMBL460472
   70    74     0     0     0
SMALL
USER_CHARGES

@<TRIPOS>ATOM
      1 C1         -0.2435    1.2080   -0.9018 C.3       1 <0>        -0.1142
      2 C2         -0.3319   -0.2896   -0.7592 C.2       1 <0>         0.2986
      3 C3         -0.3747   -1.1981   -1.7989 C.2       1 <0>        -0.4034
      4 C4         -0.4577   -2.5327   -1.1846 C.2       1 <0>         0.5572
      5 O1         -0.5140   -3.5999   -1.7666 O.2       1 <0>        -0.5196
      6 N1         -0.4591   -2.3405    0.1509 N.am      1 <0>        -0.3656
      7 N2         -0.3766   -0.9679    0.4032 N.pl3     1 <0>        -0.3447
      8 C5         -0.3470   -0.3577    1.7347 C.3       1 <0>         0.0795
      9 C6          1.0990   -0.2817    2.2288 C.3       1 <0>         0.1126
     10 C7          1.1198    0.2396    3.6671 C.3       1 <0>        -0.1791
     11 C8          1.7278   -1.6757    2.1824 C.3       1 <0>        -0.1453
     12 O2          1.8430    0.6045    1.3902 O.3       1 <0>        -0.5485
     13 C9         -0.5264   -3.3463    1.1205 C.ar      1 <0>         0.1408
     14 C10        -1.4375   -3.2472    2.1640 C.ar      1 <0>        -0.1320
     15 C11        -1.5017   -4.2423    3.1195 C.ar      1 <0>        -0.0997
     16 C12        -0.6598   -5.3363    3.0383 C.ar      1 <0>        -0.1095
     17 C13         0.2485   -5.4381    2.0006 C.ar      1 <0>        -0.0963
     18 C14         0.3138   -4.4492    1.0386 C.ar      1 <0>        -0.0992
     19 C15        -0.3440   -0.8923   -3.2341 C.2       1 <0>         0.6284
     20 O3         -0.2741    0.2633   -3.6086 O.2       1 <0>        -0.5302
     21 N3         -0.3933   -1.8916   -4.1372 N.am      1 <0>        -0.6468
     22 C16        -0.3206   -1.6040   -5.5001 C.ar      1 <0>         0.3935
     23 C17        -0.6104   -0.3201   -5.9484 C.ar      1 <0>        -0.1771
     24 C18        -0.5351   -0.0459   -7.3019 C.ar      1 <0>        -0.0512
     25 C19        -0.1696   -1.0737   -8.1679 C.ar      1 <0>        -0.0584
     26 C20         0.1049   -2.3290   -7.6494 C.ar      1 <0>         0.1630
     27 N4          0.0287   -2.5547   -6.3517 N.ar      1 <0>        -0.4947
     28 O4         -0.0837   -0.8482   -9.5059 O.3       1 <0>        -0.1992
     29 C21         1.0029   -0.1845   -9.9710 C.ar      1 <0>         0.2956
     30 C22         2.0503    0.1478   -9.1289 C.ar      1 <0>        -0.2764
     31 C23         3.1506    0.8279   -9.6336 C.ar      1 <0>         0.2417
     32 N5          3.2319    1.1706  -10.8981 N.ar      1 <0>        -0.4935
     33 C24         2.2566    0.8820  -11.7674 C.ar      1 <0>         0.2092
     34 C25         1.1039    0.1842  -11.3313 C.ar      1 <0>        -0.1425
     35 C26         0.0853   -0.1225  -12.2459 C.ar      1 <0>         0.0028
     36 C27         0.2118    0.2466  -13.5493 C.ar      1 <0>        -0.1935
     37 C28         1.3485    0.9302  -13.9922 C.ar      1 <0>         0.2287
     38 C29         2.3591    1.2568  -13.1170 C.ar      1 <0>        -0.2042
     39 O5          1.4506    1.2870  -15.2988 O.3       1 <0>        -0.2937
     40 C30         0.3632    0.9316  -16.1553 C.3       1 <0>         0.0139
     41 H1          0.8037    1.5089   -0.9318 H         1 <0>         0.1092
     42 H2         -0.7363    1.5149   -1.8244 H         1 <0>         0.1181
     43 H3         -0.7339    1.6834   -0.0524 H         1 <0>         0.0808
     44 H4         -0.7667    0.6469    1.6835 H         1 <0>         0.1175
     45 H5         -0.9354   -0.9625    2.4247 H         1 <0>         0.1130
     46 H6          0.5524   -0.4364    4.3068 H         1 <0>         0.0728
     47 H7          2.1500    0.2937    4.0191 H         1 <0>         0.0787
     48 H8          0.6718    1.2327    3.7002 H         1 <0>         0.0665
     49 H9          1.7130   -2.0471    1.1578 H         1 <0>         0.0635
     50 H10         2.7580   -1.6216    2.5344 H         1 <0>         0.0723
     51 H11         1.1604   -2.3517    2.8221 H         1 <0>         0.0740
     52 H12         1.5000    1.5085    1.3711 H         1 <0>         0.3762
     53 H13        -2.0948   -2.3927    2.2284 H         1 <0>         0.1263
     54 H14        -2.2100   -4.1658    3.9313 H         1 <0>         0.1352
     55 H15        -0.7115   -6.1128    3.7872 H         1 <0>         0.1339
     56 H16         0.9046   -6.2938    1.9400 H         1 <0>         0.1367
     57 H17         1.0203   -4.5314    0.2259 H         1 <0>         0.1320
     58 H18        -0.4793   -2.8107   -3.8393 H         1 <0>         0.4331
     59 H19        -0.8910    0.4531   -5.2485 H         1 <0>         0.1917
     60 H20        -0.7551    0.9421   -7.6786 H         1 <0>         0.1502
     61 H21         0.3886   -3.1309   -8.3148 H         1 <0>         0.1742
     62 H22         2.0115   -0.1206   -8.0835 H         1 <0>         0.1818
     63 H23         3.9616    1.0822   -8.9673 H         1 <0>         0.2122
     64 H24        -0.7972   -0.6507  -11.9163 H         1 <0>         0.1661
     65 H25        -0.5746    0.0086  -14.2502 H         1 <0>         0.1604
     66 H26         3.2328    1.7852  -13.4691 H         1 <0>         0.1667
     67 H27         0.5719    1.2745  -17.1687 H         1 <0>         0.1192
     68 H28         0.2404   -0.1514  -16.1562 H         1 <0>         0.0710
     69 H29        -0.5520    1.4008  -15.7942 H         1 <0>         0.0709
     70 H30         4.0184    1.6450  -11.2100 H         1 <0>         0.4486
@<TRIPOS>BOND
     1    1    2 1
     2    1   41 1
     3    1   42 1
     4    1   43 1
     5    2    7 1
     6    2    3 2
     7    3    4 1
     8    3   19 1
     9    4    5 2
    10    4    6 am
    11    6    7 1
    12    6   13 1
    13    7    8 1
    14    8    9 1
    15    8   44 1
    16    8   45 1
    17    9   10 1
    18    9   11 1
    19    9   12 1
    20   10   46 1
    21   10   47 1
    22   10   48 1
    23   11   49 1
    24   11   50 1
    25   11   51 1
    26   12   52 1
    27   13   18 ar
    28   13   14 ar
    29   14   15 ar
    30   14   53 1
    31   15   16 ar
    32   15   54 1
    33   16   17 ar
    34   16   55 1
    35   17   18 ar
    36   17   56 1
    37   18   57 1
    38   19   20 2
    39   19   21 am
    40   21   22 1
    41   21   58 1
    42   22   27 ar
    43   22   23 ar
    44   23   24 ar
    45   23   59 1
    46   24   25 ar
    47   24   60 1
    48   25   26 ar
    49   25   28 1
    50   26   27 ar
    51   26   61 1
    52   28   29 1
    53   29   34 ar
    54   29   30 ar
    55   30   31 ar
    56   30   62 1
    57   31   32 ar
    58   31   63 1
    59   32   33 ar
    60   32   70 1
    61   33   38 ar
    62   33   34 ar
    63   34   35 ar
    64   35   36 ar
    65   35   64 1
    66   36   37 ar
    67   36   65 1
    68   37   38 ar
    69   37   39 1
    70   38   66 1
    71   39   40 1
    72   40   67 1
    73   40   68 1
    74   40   69 1
@<TRIPOS>MOLECULE
CHEMBL460472__1
   69    73     0     0     0
SMALL
USER_CHARGES

@<TRIPOS>ATOM
      1 C1         -0.1991    1.2825   -0.8197 C.3       1 <0>        -0.1065
      2 C2         -0.2797   -0.2172   -0.6963 C.2       1 <0>         0.3023
      3 C3         -0.3307   -1.1119   -1.7475 C.2       1 <0>        -0.3987
      4 C4         -0.4010   -2.4549   -1.1502 C.2       1 <0>         0.5565
      5 O1         -0.4596   -3.5144   -1.7459 O.2       1 <0>        -0.5190
      6 N1         -0.3878   -2.2807    0.1876 N.am      1 <0>        -0.3702
      7 N2         -0.3081   -0.9112    0.4574 N.pl3     1 <0>        -0.3526
      8 C5         -0.2656   -0.3188    1.7966 C.3       1 <0>         0.1252
      9 C6          1.1858   -0.2423    2.2746 C.3       1 <0>         0.1102
     10 C7          1.2211    0.2598    3.7194 C.3       1 <0>        -0.1782
     11 C8          1.8206   -1.6324    2.2020 C.3       1 <0>        -0.1846
     12 O2          1.9155    0.6588    1.4393 O.3       1 <0>        -0.5550
     13 C9         -0.4397   -3.2997    1.1443 C.ar      1 <0>         0.1474
     14 C10        -1.3386   -3.2181    2.1999 C.ar      1 <0>        -0.1339
     15 C11        -1.3877   -4.2262    3.1426 C.ar      1 <0>        -0.1004
     16 C12        -0.5427   -5.3157    3.0366 C.ar      1 <0>        -0.1138
     17 C13         0.3535   -5.4000    1.9868 C.ar      1 <0>        -0.0968
     18 C14         0.4036   -4.3980    1.0376 C.ar      1 <0>        -0.1008
     19 C15        -0.3179   -0.7868   -3.1787 C.2       1 <0>         0.6236
     20 O3         -0.2571    0.3741   -3.5384 O.2       1 <0>        -0.5300
     21 N3         -0.3735   -1.7740   -4.0945 N.am      1 <0>        -0.6472
     22 C16        -0.3157   -1.4681   -5.4542 C.ar      1 <0>         0.3679
     23 C17        -0.6160   -0.1798   -5.8824 C.ar      1 <0>        -0.1750
     24 C18        -0.5556    0.1127   -7.2329 C.ar      1 <0>        -0.0623
     25 C19        -0.1939   -0.9017   -8.1160 C.ar      1 <0>        -0.0087
     26 C20         0.0918   -2.1624   -7.6170 C.ar      1 <0>         0.1404
     27 N4          0.0296   -2.4057   -6.3217 N.ar      1 <0>        -0.4965
     28 O4         -0.1224   -0.6581   -9.4517 O.3       1 <0>        -0.2369
     29 C21         0.9564    0.0171   -9.9186 C.ar      1 <0>         0.1949
     30 C22         2.0105    0.3433   -9.0826 C.ar      1 <0>        -0.2775
     31 C23         3.1024    1.0355   -9.5890 C.ar      1 <0>         0.1803
     32 N5          3.1695    1.3954  -10.8497 N.ar      1 <0>        -0.5021
     33 C24         2.1871    1.1132  -11.7131 C.ar      1 <0>         0.1970
     34 C25         1.0420    0.4044  -11.2748 C.ar      1 <0>        -0.1488
     35 C26         0.0157    0.1049  -12.1833 C.ar      1 <0>        -0.0338
     36 C27         0.1275    0.4919  -13.4828 C.ar      1 <0>        -0.2017
     37 C28         1.2564    1.1869  -13.9278 C.ar      1 <0>         0.1577
     38 C29         2.2745    1.5061  -13.0586 C.ar      1 <0>        -0.1526
     39 O5          1.3437    1.5616  -15.2305 O.3       1 <0>        -0.3117
     40 C30         0.2496    1.2123  -16.0808 C.3       1 <0>         0.0241
     41 H1          0.8464    1.5883   -0.8577 H         1 <0>         0.1094
     42 H2         -0.7038    1.5996   -1.7323 H         1 <0>         0.1146
     43 H3         -0.6817    1.7444    0.0416 H         1 <0>         0.0788
     44 H4         -0.6908    0.6843    1.7638 H         1 <0>         0.1203
     45 H5         -0.8429   -0.9357    2.4853 H         1 <0>         0.1132
     46 H6          0.6645   -0.4275    4.3566 H         1 <0>         0.0704
     47 H7          2.2551    0.3143    4.0600 H         1 <0>         0.0709
     48 H8          0.7688    1.2502    3.7711 H         1 <0>         0.0713
     49 H9          1.7955   -1.9901    1.1727 H         1 <0>         0.0661
     50 H10         2.8546   -1.5779    2.5425 H         1 <0>         0.0661
     51 H11         1.2640   -2.3197    2.8391 H         1 <0>         0.0691
     52 H12         2.8457    0.7567    1.6846 H         1 <0>         0.3854
     53 H13        -1.9983   -2.3671    2.2836 H         1 <0>         0.1266
     54 H14        -2.0864   -4.1634    3.9636 H         1 <0>         0.1335
     55 H15        -0.5825   -6.1024    3.7755 H         1 <0>         0.1318
     56 H16         1.0120   -6.2522    1.9069 H         1 <0>         0.1351
     57 H17         1.1006   -4.4666    0.2155 H         1 <0>         0.1321
     58 H18        -0.4536   -2.6973   -3.8081 H         1 <0>         0.4281
     59 H19        -0.8933    0.5827   -5.1696 H         1 <0>         0.1844
     60 H20        -0.7840    1.1046   -7.5942 H         1 <0>         0.1456
     61 H21         0.3727   -2.9541   -8.2958 H         1 <0>         0.1689
     62 H22         1.9835    0.0608   -8.0406 H         1 <0>         0.1389
     63 H23         3.9189    1.2849   -8.9275 H         1 <0>         0.1631
     64 H24        -0.8608   -0.4320  -11.8520 H         1 <0>         0.1396
     65 H25        -0.6648    0.2594  -14.1790 H         1 <0>         0.1371
     66 H26         3.1421    2.0434  -13.4123 H         1 <0>         0.1469
     67 H27         0.1319    0.1288  -16.0949 H         1 <0>         0.0586
     68 H28        -0.6642    1.6721  -15.7044 H         1 <0>         0.0584
     69 H29         0.4464    1.5697  -17.0915 H         1 <0>         0.1037
@<TRIPOS>BOND
     1    1    2 1
     2    1   41 1
     3    1   42 1
     4    1   43 1
     5    2    7 1
     6    2    3 2
     7    3    4 1
     8    3   19 1
     9    4    5 2
    10    4    6 am
    11    6    7 1
    12    6   13 1
    13    7    8 1
    14    8    9 1
    15    8   44 1
    16    8   45 1
    17    9   10 1
    18    9   11 1
    19    9   12 1
    20   10   46 1
    21   10   47 1
    22   10   48 1
    23   11   49 1
    24   11   50 1
    25   11   51 1
    26   12   52 1
    27   13   18 ar
    28   13   14 ar
    29   14   15 ar
    30   14   53 1
    31   15   16 ar
    32   15   54 1
    33   16   17 ar
    34   16   55 1
    35   17   18 ar
    36   17   56 1
    37   18   57 1
    38   19   20 2
    39   19   21 am
    40   21   22 1
    41   21   58 1
    42   22   27 ar
    43   22   23 ar
    44   23   24 ar
    45   23   59 1
    46   24   25 ar
    47   24   60 1
    48   25   26 ar
    49   25   28 1
    50   26   27 ar
    51   26   61 1
    52   28   29 1
    53   29   34 ar
    54   29   30 ar
    55   30   31 ar
    56   30   62 1
    57   31   32 ar
    58   31   63 1
    59   32   33 ar
    60   33   38 ar
    61   33   34 ar
    62   34   35 ar
    63   35   36 ar
    64   35   64 1
    65   36   37 ar
    66   36   65 1
    67   37   38 ar
    68   37   39 1
    69   38   66 1
    70   39   40 1
    71   40   67 1
    72   40   68 1
    73   40   69 1
@<TRIPOS>MOLECULE
CHEMBL1171025
   59    64     0     0     0
SMALL
USER_CHARGES

@<TRIPOS>ATOM
      1 C1          7.0716    1.6887    0.0662 C.ar      1 <0>        -0.0936
      2 C2          5.8849    2.0253    0.6928 C.ar      1 <0>        -0.1238
      3 C3          4.7891    1.1931    0.5943 C.ar      1 <0>        -0.0628
      4 C4          4.8794    0.0093   -0.1395 C.ar      1 <0>        -0.1349
      5 C5          6.0795   -0.3244   -0.7693 C.ar      1 <0>        -0.0981
      6 C6          7.1679    0.5166   -0.6628 C.ar      1 <0>        -0.1262
      7 C7          3.7091   -0.8876   -0.2489 C.2       1 <0>         0.5640
      8 O1          2.5866   -0.4219   -0.2723 O.2       1 <0>        -0.5282
      9 N1          3.8870   -2.2215   -0.3228 N.am      1 <0>        -0.6121
     10 C8          2.7460   -3.1170   -0.5574 C.3       1 <0>         0.1158
     11 C9          2.7219   -4.1834    0.5420 C.3       1 <0>        -0.1449
     12 C10         4.0776   -4.8920    0.5897 C.3       1 <0>         0.1635
     13 C11         5.1737   -3.8777    0.9245 C.3       1 <0>        -0.1469
     14 C12         5.2263   -2.8074   -0.1763 C.3       1 <0>         0.0949
     15 N2          4.0472   -5.9350    1.6179 N.pl3     1 <0>        -0.3617
     16 C13         4.2850   -5.7560    2.9337 C.2       1 <0>         0.0686
     17 C14         4.1581   -6.9688    3.5447 C.2       1 <0>        -0.1851
     18 C15         3.8307   -7.9126    2.5522 C.2       1 <0>         0.0625
     19 N3          3.7605   -7.2890    1.4058 N.2       1 <0>        -0.2876
     20 C16         4.3338   -7.2441    4.9937 C.ar      1 <0>        -0.1037
     21 C17         4.1799   -8.5392    5.4894 C.ar      1 <0>         0.0224
     22 C18         4.3556   -8.7484    6.8589 C.ar      1 <0>        -0.1455
     23 C19         4.6784   -7.6528    7.6776 C.ar      1 <0>         0.4362
     24 N4          4.8136   -6.4421    7.1610 N.ar      1 <0>        -0.5321
     25 C20         4.6598   -6.2134    5.8719 C.ar      1 <0>         0.1782
     26 N5          4.8564   -7.8421    9.0388 N.pl3     1 <0>        -0.8386
     27 C21         4.2043  -10.0978    7.4370 C.2       1 <0>         0.3026
     28 N6          3.2138  -10.9167    7.1839 N.2       1 <0>        -0.4612
     29 C22         3.4040  -12.0624    7.8877 C.ar      1 <0>         0.0232
     30 C23         2.6835  -13.2537    8.0038 C.ar      1 <0>        -0.0603
     31 C24         3.1508  -14.2571    8.8226 C.ar      1 <0>        -0.1174
     32 C25         4.3310  -14.0920    9.5325 C.ar      1 <0>        -0.0910
     33 C26         5.0530  -12.9210    9.4277 C.ar      1 <0>        -0.0926
     34 C27         4.5985  -11.8999    8.6079 C.ar      1 <0>         0.0065
     35 O2          5.0673  -10.6704    8.2978 O.3       1 <0>        -0.2108
     36 H1          7.9253    2.3458    0.1426 H         1 <0>         0.1289
     37 H2          5.8165    2.9415    1.2607 H         1 <0>         0.1315
     38 H3          3.8634    1.4569    1.0843 H         1 <0>         0.1329
     39 H4          6.1560   -1.2391   -1.3383 H         1 <0>         0.1357
     40 H5          8.0971    0.2596   -1.1495 H         1 <0>         0.1309
     41 H6          1.8196   -2.5432   -0.5304 H         1 <0>         0.1039
     42 H7          2.8524   -3.5973   -1.5301 H         1 <0>         0.0767
     43 H8          2.5249   -3.7099    1.5039 H         1 <0>         0.0768
     44 H9          1.9388   -4.9104    0.3267 H         1 <0>         0.0890
     45 H10         4.2852   -5.3442   -0.3801 H         1 <0>         0.1080
     46 H11         4.9535   -3.4071    1.8827 H         1 <0>         0.0810
     47 H12         6.1356   -4.3872    0.9812 H         1 <0>         0.0913
     48 H13         5.5309   -3.2630   -1.1185 H         1 <0>         0.0805
     49 H14         5.9370   -2.0294    0.1024 H         1 <0>         0.1134
     50 H15         4.5315   -4.8216    3.4159 H         1 <0>         0.1743
     51 H16         3.6624   -8.9675    2.7114 H         1 <0>         0.1847
     52 H17         3.9310   -9.3584    4.8312 H         1 <0>         0.1443
     53 H18         4.7839   -5.2103    5.4914 H         1 <0>         0.1611
     54 H19         4.6357   -8.6959    9.4427 H         1 <0>         0.4084
     55 H20         5.2016   -7.1207    9.5877 H         1 <0>         0.4106
     56 H21         1.7637  -13.3869    7.4537 H         1 <0>         0.1380
     57 H22         2.5947  -15.1785    8.9130 H         1 <0>         0.1396
     58 H23         4.6872  -14.8859   10.1722 H         1 <0>         0.1425
     59 H24         5.9708  -12.7999    9.9840 H         1 <0>         0.1366
@<TRIPOS>BOND
     1    1    6 ar
     2    1    2 ar
     3    1   36 1
     4    2    3 ar
     5    2   37 1
     6    3    4 ar
     7    3   38 1
     8    4    5 ar
     9    4    7 1
    10    5    6 ar
    11    5   39 1
    12    6   40 1
    13    7    8 2
    14    7    9 am
    15    9   14 1
    16    9   10 1
    17   10   11 1
    18   10   41 1
    19   10   42 1
    20   11   12 1
    21   11   43 1
    22   11   44 1
    23   12   13 1
    24   12   15 1
    25   12   45 1
    26   13   14 1
    27   13   46 1
    28   13   47 1
    29   14   48 1
    30   14   49 1
    31   15   19 1
    32   15   16 1
    33   16   17 2
    34   16   50 1
    35   17   18 1
    36   17   20 1
    37   18   19 2
    38   18   51 1
    39   20   25 ar
    40   20   21 ar
    41   21   22 ar
    42   21   52 1
    43   22   23 ar
    44   22   27 1
    45   23   24 ar
    46   23   26 1
    47   24   25 ar
    48   25   53 1
    49   26   54 1
    50   26   55 1
    51   27   35 1
    52   27   28 2
    53   28   29 1
    54   29   34 ar
    55   29   30 ar
    56   30   31 ar
    57   30   56 1
    58   31   32 ar
    59   31   57 1
    60   32   33 ar
    61   32   58 1
    62   33   34 ar
    63   33   59 1
    64   34   35 1
@<TRIPOS>MOLECULE
CHEMBL1171025__1
   60    65     0     0     0
SMALL
USER_CHARGES

@<TRIPOS>ATOM
      1 C1          7.0732    1.6877    0.0654 C.ar      1 <0>        -0.0914
      2 C2          5.8865    2.0247    0.6921 C.ar      1 <0>        -0.1227
      3 C3          4.7905    1.1926    0.5936 C.ar      1 <0>        -0.0631
      4 C4          4.8806    0.0087   -0.1401 C.ar      1 <0>        -0.1379
      5 C5          6.0807   -0.3253   -0.7698 C.ar      1 <0>        -0.0993
      6 C6          7.1692    0.5156   -0.6634 C.ar      1 <0>        -0.1251
      7 C7          3.7102   -0.8879   -0.2494 C.2       1 <0>         0.5648
      8 O1          2.5877   -0.4220   -0.2728 O.2       1 <0>        -0.5233
      9 N1          3.8878   -2.2219   -0.3232 N.am      1 <0>        -0.6152
     10 C8          2.7466   -3.1172   -0.5577 C.3       1 <0>         0.1143
     11 C9          2.7224   -4.1835    0.5418 C.3       1 <0>        -0.1432
     12 C10         4.0779   -4.8923    0.5895 C.3       1 <0>         0.1543
     13 C11         5.1742   -3.8783    0.9242 C.3       1 <0>        -0.1458
     14 C12         5.2271   -2.8080   -0.1767 C.3       1 <0>         0.0938
     15 N2          4.0474   -5.9353    1.6178 N.pl3     1 <0>        -0.3443
     16 C13         4.2852   -5.7562    2.9336 C.2       1 <0>         0.0985
     17 C14         4.1581   -6.9689    3.5446 C.2       1 <0>        -0.2306
     18 C15         3.8305   -7.9128    2.5523 C.2       1 <0>         0.0787
     19 N3          3.7604   -7.2892    1.4058 N.2       1 <0>        -0.2691
     20 C16         4.3338   -7.2442    4.9937 C.ar      1 <0>        -0.0091
     21 C17         4.1797   -8.5392    5.4895 C.ar      1 <0>         0.0758
     22 C18         4.3554   -8.7483    6.8590 C.ar      1 <0>        -0.0692
     23 C19         4.6784   -7.6527    7.6776 C.ar      1 <0>         0.4629
     24 N4          4.8138   -6.4420    7.1610 N.ar      1 <0>        -0.4841
     25 C20         4.6600   -6.2135    5.8718 C.ar      1 <0>         0.1348
     26 N5          4.8564   -7.8419    9.0388 N.pl3     1 <0>        -0.8105
     27 C21         4.2038  -10.0977    7.4372 C.2       1 <0>         0.2438
     28 N6          3.2131  -10.9164    7.1842 N.2       1 <0>        -0.4174
     29 C22         3.4032  -12.0620    7.8881 C.ar      1 <0>         0.0116
     30 C23         2.6825  -13.2533    8.0042 C.ar      1 <0>        -0.0466
     31 C24         3.1496  -14.2567    8.8231 C.ar      1 <0>        -0.1119
     32 C25         4.3299  -14.0917    9.5330 C.ar      1 <0>        -0.0674
     33 C26         5.0521  -12.9208    9.4281 C.ar      1 <0>        -0.0987
     34 C27         4.5977  -11.8998    8.6083 C.ar      1 <0>         0.0263
     35 O2          5.0668  -10.6704    8.2980 O.3       1 <0>        -0.2099
     36 H1          7.9269    2.3447    0.1419 H         1 <0>         0.1306
     37 H2          5.8182    2.9409    1.2598 H         1 <0>         0.1328
     38 H3          3.8649    1.4566    1.0835 H         1 <0>         0.1329
     39 H4          6.1570   -1.2401   -1.3387 H         1 <0>         0.1352
     40 H5          8.0984    0.2583   -1.1501 H         1 <0>         0.1321
     41 H6          1.8203   -2.5432   -0.5307 H         1 <0>         0.1073
     42 H7          2.8530   -3.5976   -1.5304 H         1 <0>         0.0796
     43 H8          2.5254   -3.7099    1.5036 H         1 <0>         0.0765
     44 H9          1.9391   -4.9104    0.3265 H         1 <0>         0.0916
     45 H10         4.2854   -5.3447   -0.3802 H         1 <0>         0.1171
     46 H11         4.9542   -3.4076    1.8824 H         1 <0>         0.0792
     47 H12         6.1361   -4.3879    0.9810 H         1 <0>         0.0924
     48 H13         5.5316   -3.2637   -1.1188 H         1 <0>         0.0830
     49 H14         5.9379   -2.0301    0.1019 H         1 <0>         0.1169
     50 H15         4.5319   -4.8218    3.4157 H         1 <0>         0.1807
     51 H16         3.6620   -8.9676    2.7116 H         1 <0>         0.1935
     52 H17         3.9306   -9.3584    4.8313 H         1 <0>         0.1824
     53 H18         4.7843   -5.2104    5.4912 H         1 <0>         0.2090
     54 H19         4.6357   -8.6958    9.4428 H         1 <0>         0.4390
     55 H20         5.2016   -7.1205    9.5877 H         1 <0>         0.4266
     56 H21         1.7626  -13.3863    7.4542 H         1 <0>         0.1454
     57 H22         2.5933  -15.1780    8.9137 H         1 <0>         0.1484
     58 H23         4.6860  -14.8856   10.1728 H         1 <0>         0.1513
     59 H24         5.9699  -12.7999    9.9843 H         1 <0>         0.1431
     60 H25         5.0365   -5.7020    7.7472 H         1 <0>         0.4498
@<TRIPOS>BOND
     1    1    6 ar
     2    1    2 ar
     3    1   36 1
     4    2    3 ar
     5    2   37 1
     6    3    4 ar
     7    3   38 1
     8    4    5 ar
     9    4    7 1
    10    5    6 ar
    11    5   39 1
    12    6   40 1
    13    7    8 2
    14    7    9 am
    15    9   14 1
    16    9   10 1
    17   10   11 1
    18   10   41 1
    19   10   42 1
    20   11   12 1
    21   11   43 1
    22   11   44 1
    23   12   13 1
    24   12   15 1
    25   12   45 1
    26   13   14 1
    27   13   46 1
    28   13   47 1
    29   14   48 1
    30   14   49 1
    31   15   19 1
    32   15   16 1
    33   16   17 2
    34   16   50 1
    35   17   18 1
    36   17   20 1
    37   18   19 2
    38   18   51 1
    39   20   25 ar
    40   20   21 ar
    41   21   22 ar
    42   21   52 1
    43   22   23 ar
    44   22   27 1
    45   23   24 ar
    46   23   26 1
    47   24   25 ar
    48   24   60 1
    49   25   53 1
    50   26   54 1
    51   26   55 1
    52   27   35 1
    53   27   28 2
    54   28   29 1
    55   29   34 ar
    56   29   30 ar
    57   30   31 ar
    58   30   56 1
    59   31   32 ar
    60   31   57 1
    61   32   33 ar
    62   32   58 1
    63   33   34 ar
    64   33   59 1
    65   34   35 1
@<TRIPOS>MOLECULE
CHEMBL409867
   57    61     0     0     0
SMALL
USER_CHARGES

@<TRIPOS>ATOM
      1 C1         -1.2411   -2.8051   -1.4567 C.3       1 <0>         0.0173
      2 O1          0.1832   -2.7648   -1.3478 O.3       1 <0>        -0.2775
      3 C2          0.7224   -3.1644   -0.1686 C.ar      1 <0>         0.2086
      4 C3         -0.0956   -3.5840    0.8392 C.ar      1 <0>        -0.2208
      5 C4          0.4521   -4.0003    2.0637 C.ar      1 <0>         0.2192
      6 C5          1.8589   -3.9802    2.2413 C.ar      1 <0>        -0.1589
      7 C6          2.6879   -3.5486    1.2012 C.ar      1 <0>         0.0035
      8 C7          2.1230   -3.1470   -0.0005 C.ar      1 <0>        -0.1657
      9 C8          2.9899   -2.6955   -1.1051 C.2       1 <0>         0.5642
     10 O2          2.4970   -2.3392   -2.1581 O.2       1 <0>        -0.5145
     11 N1          4.3283   -2.6778   -0.9474 N.am      1 <0>        -0.8539
     12 C9          2.3984   -4.4021    3.4798 C.ar      1 <0>         0.2051
     13 C10         1.5173   -4.8167    4.4636 C.ar      1 <0>        -0.2809
     14 C11         0.1517   -4.8074    4.2127 C.ar      1 <0>         0.1904
     15 N2         -0.3388   -4.4144    3.0600 N.ar      1 <0>        -0.5077
     16 O3          3.7361   -4.4007    3.6957 O.3       1 <0>        -0.2406
     17 C12         4.1833   -4.7456    4.9323 C.ar      1 <0>         0.0864
     18 C13         4.5736   -3.7593    5.8269 C.ar      1 <0>        -0.1170
     19 C14         5.0301   -4.1081    7.0840 C.ar      1 <0>        -0.0989
     20 C15         5.0966   -5.4428    7.4502 C.ar      1 <0>         0.1056
     21 C16         4.7036   -6.4359    6.5573 C.ar      1 <0>         0.1097
     22 C17         4.2430   -6.0817    5.2983 C.ar      1 <0>        -0.1330
     23 O4          4.7561   -7.7478    6.9087 O.3       1 <0>        -0.3032
     24 C18         5.6108   -8.1134    7.9946 C.3       1 <0>         0.0501
     25 C19         5.3293   -7.1817    9.1820 C.3       1 <0>         0.0591
     26 N3          5.5648   -5.8001    8.7289 N.am      1 <0>        -0.5649
     27 C20         6.2064   -4.9094    9.5108 C.2       1 <0>         0.7154
     28 O5          6.4386   -3.7908    9.0941 O.2       1 <0>        -0.5421
     29 N4          6.5907   -5.2584   10.7546 N.am      1 <0>        -0.6738
     30 C21         7.3849   -4.3890   11.5117 C.ar      1 <0>         0.1617
     31 C22         7.3646   -3.0249   11.2525 C.ar      1 <0>        -0.1243
     32 C23         8.1490   -2.1693   12.0008 C.ar      1 <0>        -0.0871
     33 C24         8.9548   -2.6703   13.0082 C.ar      1 <0>        -0.0522
     34 C25         8.9769   -4.0292   13.2684 C.ar      1 <0>        -0.0871
     35 C26         8.1900   -4.8885   12.5268 C.ar      1 <0>        -0.1378
     36 Cl1         9.9401   -1.5922   13.9466 Cl        1 <0>        -0.0675
     37 H1         -1.6819   -2.1577   -0.6987 H         1 <0>         0.0606
     38 H2         -1.5396   -2.4609   -2.4469 H         1 <0>         0.1063
     39 H3         -1.5880   -3.8276   -1.3076 H         1 <0>         0.0606
     40 H4         -1.1660   -3.5957    0.6955 H         1 <0>         0.1517
     41 H5          3.7599   -3.5313    1.3312 H         1 <0>         0.1475
     42 H6          4.7214   -2.9620   -0.1074 H         1 <0>         0.3990
     43 H7          4.8984   -2.3808   -1.6738 H         1 <0>         0.4074
     44 H8          1.8904   -5.1463    5.4220 H         1 <0>         0.1445
     45 H9         -0.5263   -5.1334    4.9876 H         1 <0>         0.1650
     46 H10         4.5211   -2.7193    5.5407 H         1 <0>         0.1422
     47 H11         5.3350   -3.3409    7.7803 H         1 <0>         0.1797
     48 H12         3.9344   -6.8467    4.6013 H         1 <0>         0.1467
     49 H13         5.4119   -9.1451    8.2846 H         1 <0>         0.1311
     50 H14         6.6524   -8.0119    7.6897 H         1 <0>         0.0762
     51 H15         4.2938   -7.2943    9.5031 H         1 <0>         0.0988
     52 H16         6.0011   -7.4202   10.0066 H         1 <0>         0.1040
     53 H17         6.3171   -6.1120   11.1252 H         1 <0>         0.4105
     54 H18         6.7362   -2.6335   10.4662 H         1 <0>         0.1684
     55 H19         8.1339   -1.1084   11.7994 H         1 <0>         0.1386
     56 H20         9.6068   -4.4178   14.0549 H         1 <0>         0.1393
     57 H21         8.2042   -5.9485   12.7333 H         1 <0>         0.1350
@<TRIPOS>BOND
     1    1    2 1
     2    1   37 1
     3    1   38 1
     4    1   39 1
     5    2    3 1
     6    3    8 ar
     7    3    4 ar
     8    4    5 ar
     9    4   40 1
    10    5   15 ar
    11    5    6 ar
    12    6    7 ar
    13    6   12 ar
    14    7    8 ar
    15    7   41 1
    16    8    9 1
    17    9   10 2
    18    9   11 am
    19   11   42 1
    20   11   43 1
    21   12   13 ar
    22   12   16 1
    23   13   14 ar
    24   13   44 1
    25   14   15 ar
    26   14   45 1
    27   16   17 1
    28   17   22 ar
    29   17   18 ar
    30   18   19 ar
    31   18   46 1
    32   19   20 ar
    33   19   47 1
    34   20   26 1
    35   20   21 ar
    36   21   22 ar
    37   21   23 1
    38   22   48 1
    39   23   24 1
    40   24   25 1
    41   24   49 1
    42   24   50 1
    43   25   26 1
    44   25   51 1
    45   25   52 1
    46   26   27 am
    47   27   28 2
    48   27   29 am
    49   29   30 1
    50   29   53 1
    51   30   35 ar
    52   30   31 ar
    53   31   32 ar
    54   31   54 1
    55   32   33 ar
    56   32   55 1
    57   33   34 ar
    58   33   36 1
    59   34   35 ar
    60   34   56 1
    61   35   57 1
@<TRIPOS>MOLECULE
CHEMBL525260
   56    60     0     0     0
SMALL
USER_CHARGES

@<TRIPOS>ATOM
      1 C1          0.0071    0.9165    0.3920 C.ar      1 <0>        -0.1634
      2 C2          1.2477    0.8882    1.0048 C.ar      1 <0>        -0.0718
      3 C3          2.3856    1.0528    0.2068 C.ar      1 <0>        -0.0786
      4 C4          2.2244    1.2376   -1.1672 C.ar      1 <0>         0.1256
      5 N1          1.0219    1.2573   -1.7036 N.ar      1 <0>        -0.4755
      6 C5         -0.0681    1.1045   -0.9761 C.ar      1 <0>         0.1023
      7 C6          3.7358    1.0316    0.8092 C.2       1 <0>         0.1179
      8 C7          4.8990    1.1863    0.1293 C.2       1 <0>        -0.1407
      9 C8          5.9766    1.0971    1.1108 C.ar      1 <0>        -0.1746
     10 C9          7.3766    1.1763    1.0347 C.ar      1 <0>         0.2142
     11 C10         8.1008    1.0416    2.2121 C.ar      1 <0>        -0.2821
     12 C11         7.4263    0.8370    3.4033 C.ar      1 <0>         0.1844
     13 N2          6.1121    0.7658    3.4505 N.ar      1 <0>        -0.5174
     14 C12         5.3640    0.8872    2.3598 C.ar      1 <0>         0.3301
     15 N3          4.0063    0.8576    2.1485 N.pl3     1 <0>        -0.5727
     16 H1          3.3378    0.7306    2.8398 H         1 <0>         0.4215
     17 O1          8.0023    1.3775   -0.1520 O.3       1 <0>        -0.2350
     18 C13         9.3514    1.5486   -0.1416 C.ar      1 <0>         0.0296
     19 C14         9.8878    2.8261   -0.0795 C.ar      1 <0>        -0.0679
     20 C15        11.2577    3.0009   -0.0688 C.ar      1 <0>        -0.1151
     21 C16        12.0994    1.8977   -0.1198 C.ar      1 <0>         0.1968
     22 C17        11.5637    0.6184   -0.1816 C.ar      1 <0>        -0.1701
     23 C18        10.1922    0.4435   -0.1874 C.ar      1 <0>         0.1200
     24 F1          9.6698   -0.8012   -0.2423 F         1 <0>        -0.1210
     25 N4         13.4891    2.0756   -0.1095 N.am      1 <0>        -0.6779
     26 C19        14.0353    3.0735    0.6133 C.2       1 <0>         0.6960
     27 O2         13.3194    3.8623    1.1986 O.2       1 <0>        -0.5051
     28 N5         15.3754    3.1967    0.6869 N.am      1 <0>        -0.6891
     29 C20        15.9216    4.1946    1.4097 C.2       1 <0>         0.5156
     30 O3         15.2075    4.9813    1.9935 O.2       1 <0>        -0.4482
     31 C21        17.4201    4.3323    1.4921 C.3       1 <0>        -0.0947
     32 C22        17.7688    5.5180    2.3545 C.ar      1 <0>        -0.0911
     33 C23        17.9112    6.7691    1.7838 C.ar      1 <0>        -0.0724
     34 C24        18.2306    7.8571    2.5737 C.ar      1 <0>        -0.1521
     35 C25        18.4080    7.6939    3.9372 C.ar      1 <0>         0.1047
     36 C26        18.2651    6.4403    4.5076 C.ar      1 <0>        -0.1521
     37 C27        17.9405    5.3547    3.7165 C.ar      1 <0>        -0.0724
     38 F2         18.7206    8.7567    4.7103 F         1 <0>        -0.1378
     39 H2         -0.8927    0.7885    0.9754 H         1 <0>         0.1414
     40 H3          1.3355    0.7434    2.0714 H         1 <0>         0.1317
     41 H4          3.0932    1.3659   -1.7957 H         1 <0>         0.1641
     42 H5         -1.0349    1.1265   -1.4569 H         1 <0>         0.1611
     43 H6          5.0074    1.3445   -0.9335 H         1 <0>         0.1589
     44 H7          9.1794    1.0958    2.1984 H         1 <0>         0.1403
     45 H8          7.9921    0.7327    4.3173 H         1 <0>         0.1680
     46 H9          9.2338    3.6847   -0.0397 H         1 <0>         0.1495
     47 H10        11.6745    3.9961   -0.0211 H         1 <0>         0.1571
     48 H11        12.2180   -0.2400   -0.2213 H         1 <0>         0.1502
     49 H12        14.0580    1.4806   -0.6225 H         1 <0>         0.4145
     50 H13        15.9467    2.5672    0.2198 H         1 <0>         0.4136
     51 H14        17.8446    3.4282    1.9285 H         1 <0>         0.1145
     52 H15        17.8270    4.4786    0.4915 H         1 <0>         0.1146
     53 H16        17.7732    6.8961    0.7202 H         1 <0>         0.1324
     54 H17        18.3422    8.8344    2.1276 H         1 <0>         0.1378
     55 H18        18.4035    6.3118    5.5709 H         1 <0>         0.1378
     56 H19        17.8246    4.3776    4.1618 H         1 <0>         0.1324
@<TRIPOS>BOND
     1    1    6 ar
     2    1    2 ar
     3    1   39 1
     4    2    3 ar
     5    2   40 1
     6    3    4 ar
     7    3    7 1
     8    4    5 ar
     9    4   41 1
    10    5    6 ar
    11    6   42 1
    12    7   15 1
    13    7    8 2
    14    8    9 1
    15    8   43 1
    16    9   14 ar
    17    9   10 ar
    18   10   11 ar
    19   10   17 1
    20   11   12 ar
    21   11   44 1
    22   12   13 ar
    23   12   45 1
    24   13   14 ar
    25   14   15 1
    26   15   16 1
    27   17   18 1
    28   18   23 ar
    29   18   19 ar
    30   19   20 ar
    31   19   46 1
    32   20   21 ar
    33   20   47 1
    34   21   22 ar
    35   21   25 1
    36   22   23 ar
    37   22   48 1
    38   23   24 1
    39   25   26 am
    40   25   49 1
    41   26   27 2
    42   26   28 am
    43   28   29 am
    44   28   50 1
    45   29   30 2
    46   29   31 1
    47   31   32 1
    48   31   51 1
    49   31   52 1
    50   32   37 ar
    51   32   33 ar
    52   33   34 ar
    53   33   53 1
    54   34   35 ar
    55   34   54 1
    56   35   36 ar
    57   35   38 1
    58   36   37 ar
    59   36   55 1
    60   37   56 1
@<TRIPOS>MOLECULE
CHEMBL567908
   45    49     0     0     0
SMALL
USER_CHARGES

@<TRIPOS>ATOM
      1 C1         -0.0184    1.5028    0.0103 C.3       1 <0>        -0.0938
      2 C2          0.0021   -0.0041    0.0020 C.2       1 <0>         0.0939
      3 C3          0.0051   -0.6802   -1.1933 C.2       1 <0>        -0.1326
      4 C4          0.0244   -2.0629   -1.0898 C.2       1 <0>        -0.1277
      5 S1          0.0364   -2.2745    0.6813 S.3       1 <0>         0.2794
      6 N1          0.0222   -0.6606    1.1339 N.2       1 <0>        -0.4181
      7 C5          0.0321   -3.0851   -2.1582 C.2       1 <0>         0.2581
      8 C6          0.0468   -4.4550   -1.8140 C.2       1 <0>        -0.1527
      9 C7          0.0540   -5.4020   -2.7881 C.2       1 <0>         0.0121
     10 C8          0.0466   -4.9993   -4.1374 C.2       1 <0>         0.1459
     11 N2          0.0503   -5.6532   -5.2875 N.2       1 <0>        -0.2383
     12 N3          0.0393   -4.8071   -6.2576 N.2       1 <0>        -0.2210
     13 C9          0.0281   -3.5833   -5.7909 C.2       1 <0>         0.1969
     14 N4          0.0322   -3.6589   -4.4421 N.pl3     1 <0>        -0.2831
     15 N5          0.0197   -2.7083   -3.4194 N.2       1 <0>        -0.2353
     16 C10         0.0137   -2.3189   -6.6107 C.3       1 <0>         0.1527
     17 O1         -1.3381   -1.9323   -6.8664 O.3       1 <0>        -0.2985
     18 C11        -1.5285   -0.8063   -7.5972 C.ar      1 <0>         0.2070
     19 C12        -0.4544   -0.0753   -8.0739 C.ar      1 <0>        -0.2932
     20 C13        -0.6800    1.0740   -8.8197 C.ar      1 <0>         0.1824
     21 N6         -1.8932    1.4956   -9.0911 N.ar      1 <0>        -0.5027
     22 C14        -2.9766    0.8382   -8.6621 C.ar      1 <0>         0.1994
     23 C15        -2.8296   -0.3466   -7.9002 C.ar      1 <0>        -0.1514
     24 C16        -3.9673   -1.0373   -7.4563 C.ar      1 <0>        -0.0328
     25 C17        -5.2069   -0.5688   -7.7642 C.ar      1 <0>        -0.2019
     26 C18        -5.3637    0.5969   -8.5206 C.ar      1 <0>         0.1597
     27 C19        -4.2677    1.3032   -8.9609 C.ar      1 <0>        -0.1531
     28 O2         -6.6124    1.0433   -8.8148 O.3       1 <0>        -0.3108
     29 C20        -7.7099    0.2734   -8.3199 C.3       1 <0>         0.0239
     30 H1          1.0042    1.8801    0.0026 H         1 <0>         0.0877
     31 H2         -0.5455    1.8639   -0.8728 H         1 <0>         0.0850
     32 H3         -0.5286    1.8543    0.9071 H         1 <0>         0.0833
     33 H4         -0.0071   -0.1714   -2.1459 H         1 <0>         0.1701
     34 H5          0.0528   -4.7500   -0.7750 H         1 <0>         0.1677
     35 H6          0.0656   -6.4508   -2.5307 H         1 <0>         0.1814
     36 H7          0.5212   -1.5248   -6.0629 H         1 <0>         0.0982
     37 H8          0.5269   -2.4931   -7.5564 H         1 <0>         0.1134
     38 H9          0.5553   -0.3974   -7.8663 H         1 <0>         0.1425
     39 H10         0.1658    1.6367   -9.1862 H         1 <0>         0.1646
     40 H11        -3.8593   -1.9389   -6.8717 H         1 <0>         0.1358
     41 H12        -6.0801   -1.1036   -7.4208 H         1 <0>         0.1366
     42 H13        -4.3997    2.2023   -9.5445 H         1 <0>         0.1479
     43 H14        -8.6471    0.7388   -8.6252 H         1 <0>         0.1046
     44 H15        -7.6570   -0.7370   -8.7252 H         1 <0>         0.0588
     45 H16        -7.6628    0.2313   -7.2317 H         1 <0>         0.0581
@<TRIPOS>BOND
     1    1    2 1
     2    1   30 1
     3    1   31 1
     4    1   32 1
     5    2    6 2
     6    2    3 1
     7    3    4 2
     8    3   33 1
     9    4    5 1
    10    4    7 1
    11    5    6 1
    12    7   15 2
    13    7    8 1
    14    8    9 2
    15    8   34 1
    16    9   10 1
    17    9   35 1
    18   10   14 1
    19   10   11 2
    20   11   12 1
    21   12   13 2
    22   13   14 1
    23   13   16 1
    24   14   15 1
    25   16   17 1
    26   16   36 1
    27   16   37 1
    28   17   18 1
    29   18   23 ar
    30   18   19 ar
    31   19   20 ar
    32   19   38 1
    33   20   21 ar
    34   20   39 1
    35   21   22 ar
    36   22   27 ar
    37   22   23 ar
    38   23   24 ar
    39   24   25 ar
    40   24   40 1
    41   25   26 ar
    42   25   41 1
    43   26   27 ar
    44   26   28 1
    45   27   42 1
    46   28   29 1
    47   29   43 1
    48   29   44 1
    49   29   45 1
@<TRIPOS>MOLECULE
CHEMBL567908__1
   46    50     0     0     0
SMALL
USER_CHARGES

@<TRIPOS>ATOM
      1 C1         -0.0184    1.5028    0.0103 C.3       1 <0>        -0.0938
      2 C2          0.0021   -0.0041    0.0020 C.2       1 <0>         0.0899
      3 C3          0.0051   -0.6802   -1.1933 C.2       1 <0>        -0.1294
      4 C4          0.0244   -2.0629   -1.0898 C.2       1 <0>        -0.1399
      5 S1          0.0364   -2.2745    0.6813 S.3       1 <0>         0.2962
      6 N1          0.0222   -0.6606    1.1339 N.2       1 <0>        -0.4120
      7 C5          0.0321   -3.0851   -2.1582 C.2       1 <0>         0.2708
      8 C6          0.0468   -4.4550   -1.8140 C.2       1 <0>        -0.1480
      9 C7          0.0540   -5.4020   -2.7881 C.2       1 <0>         0.0118
     10 C8          0.0466   -4.9993   -4.1374 C.2       1 <0>         0.1594
     11 N2          0.0503   -5.6532   -5.2875 N.2       1 <0>        -0.2323
     12 N3          0.0393   -4.8071   -6.2576 N.2       1 <0>        -0.2116
     13 C9          0.0281   -3.5833   -5.7909 C.2       1 <0>         0.1708
     14 N4          0.0322   -3.6589   -4.4421 N.pl3     1 <0>        -0.2818
     15 N5          0.0197   -2.7083   -3.4194 N.2       1 <0>        -0.2484
     16 C10         0.0137   -2.3189   -6.6107 C.3       1 <0>         0.1473
     17 O1         -1.3381   -1.9323   -6.8664 O.3       1 <0>        -0.2708
     18 C11        -1.5285   -0.8063   -7.5972 C.ar      1 <0>         0.3093
     19 C12        -0.4544   -0.0753   -8.0739 C.ar      1 <0>        -0.2907
     20 C13        -0.6800    1.0740   -8.8197 C.ar      1 <0>         0.2471
     21 N6         -1.8932    1.4956   -9.0911 N.ar      1 <0>        -0.4926
     22 C14        -2.9766    0.8382   -8.6621 C.ar      1 <0>         0.2092
     23 C15        -2.8296   -0.3466   -7.9002 C.ar      1 <0>        -0.1442
     24 C16        -3.9673   -1.0373   -7.4563 C.ar      1 <0>         0.0028
     25 C17        -5.2069   -0.5688   -7.7642 C.ar      1 <0>        -0.1926
     26 C18        -5.3637    0.5969   -8.5206 C.ar      1 <0>         0.2300
     27 C19        -4.2677    1.3032   -8.9609 C.ar      1 <0>        -0.2029
     28 O2         -6.6124    1.0433   -8.8148 O.3       1 <0>        -0.2925
     29 C20        -7.7099    0.2734   -8.3199 C.3       1 <0>         0.0136
     30 H1          1.0042    1.8801    0.0026 H         1 <0>         0.0885
     31 H2         -0.5455    1.8639   -0.8728 H         1 <0>         0.0826
     32 H3         -0.5286    1.8543    0.9071 H         1 <0>         0.0852
     33 H4         -0.0071   -0.1714   -2.1459 H         1 <0>         0.1671
     34 H5          0.0528   -4.7500   -0.7750 H         1 <0>         0.1715
     35 H6          0.0656   -6.4508   -2.5307 H         1 <0>         0.1857
     36 H7          0.5212   -1.5248   -6.0629 H         1 <0>         0.1133
     37 H8          0.5269   -2.4931   -7.5564 H         1 <0>         0.1286
     38 H9          0.5553   -0.3974   -7.8663 H         1 <0>         0.1864
     39 H10         0.1658    1.6367   -9.1862 H         1 <0>         0.2144
     40 H11        -3.8593   -1.9389   -6.8717 H         1 <0>         0.1625
     41 H12        -6.0801   -1.1036   -7.4208 H         1 <0>         0.1601
     42 H13        -4.3997    2.2023   -9.5445 H         1 <0>         0.1679
     43 H14        -7.6570   -0.7370   -8.7252 H         1 <0>         0.0714
     44 H15        -7.6628    0.2313   -7.2317 H         1 <0>         0.0707
     45 H16        -8.6471    0.7388   -8.6252 H         1 <0>         0.1203
     46 H17        -2.0069    2.3038   -9.6153 H         1 <0>         0.4495
@<TRIPOS>BOND
     1    1    2 1
     2    1   30 1
     3    1   31 1
     4    1   32 1
     5    2    6 2
     6    2    3 1
     7    3    4 2
     8    3   33 1
     9    4    5 1
    10    4    7 1
    11    5    6 1
    12    7   15 2
    13    7    8 1
    14    8    9 2
    15    8   34 1
    16    9   10 1
    17    9   35 1
    18   10   14 1
    19   10   11 2
    20   11   12 1
    21   12   13 2
    22   13   14 1
    23   13   16 1
    24   14   15 1
    25   16   17 1
    26   16   36 1
    27   16   37 1
    28   17   18 1
    29   18   23 ar
    30   18   19 ar
    31   19   20 ar
    32   19   38 1
    33   20   21 ar
    34   20   39 1
    35   21   22 ar
    36   21   46 1
    37   22   27 ar
    38   22   23 ar
    39   23   24 ar
    40   24   25 ar
    41   24   40 1
    42   25   26 ar
    43   25   41 1
    44   26   27 ar
    45   26   28 1
    46   27   42 1
    47   28   29 1
    48   29   43 1
    49   29   44 1
    50   29   45 1
@<TRIPOS>MOLECULE
CHEMBL500422
   56    59     0     0     0
SMALL
USER_CHARGES

@<TRIPOS>ATOM
      1 C1         -1.9428   -1.8086    3.2669 C.ar      1 <0>        -0.0714
      2 C2         -1.4398   -2.3020    4.4640 C.ar      1 <0>        -0.1692
      3 C3         -0.2591   -3.0210    4.4603 C.ar      1 <0>         0.1057
      4 N1          0.3948   -3.2438    3.3384 N.ar      1 <0>        -0.4732
      5 C4         -0.0513   -2.7895    2.1706 C.ar      1 <0>         0.2365
      6 C5         -1.2394   -2.0555    2.1028 C.ar      1 <0>        -0.1459
      7 C6          0.6906   -3.0537    0.9746 C.1       1 <0>        -0.1268
      8 C7          1.2988   -3.2703   -0.0059 C.1       1 <0>        -0.0560
      9 C8          2.0406   -3.5344   -1.2020 C.ar      1 <0>        -0.1427
     10 C9          3.2348   -4.2753   -1.1560 C.ar      1 <0>         0.2281
     11 C10         3.9147   -4.5024   -2.3489 C.ar      1 <0>        -0.3073
     12 C11         3.4026   -3.9998   -3.5274 C.ar      1 <0>         0.2056
     13 N2          2.2788   -3.3065   -3.5468 N.ar      1 <0>        -0.5580
     14 C12         1.5866   -3.0636   -2.4452 C.ar      1 <0>         0.4662
     15 N3          0.4091   -2.3357   -2.5179 N.pl3     1 <0>        -0.8312
     16 O1          3.7116   -4.7552    0.0194 O.3       1 <0>        -0.2324
     17 C13         4.8135   -5.5516   -0.0161 C.ar      1 <0>         0.0280
     18 C14         4.6711   -6.9296   -0.0798 C.ar      1 <0>        -0.0669
     19 C15         5.7895   -7.7392   -0.1158 C.ar      1 <0>        -0.1150
     20 C16         7.0576   -7.1741   -0.0879 C.ar      1 <0>         0.1979
     21 C17         7.2014   -5.7947   -0.0241 C.ar      1 <0>        -0.1699
     22 C18         6.0815   -4.9843    0.0058 C.ar      1 <0>         0.1214
     23 F1          6.2203   -3.6416    0.0623 F         1 <0>        -0.1205
     24 N4          8.1917   -7.9959   -0.1235 N.am      1 <0>        -0.6780
     25 C19         8.1789   -9.1309   -0.8502 C.2       1 <0>         0.6960
     26 O2          7.1613   -9.4783   -1.4168 O.2       1 <0>        -0.5049
     27 N5          9.2945   -9.8807   -0.9485 N.am      1 <0>        -0.6891
     28 C20         9.2818  -11.0157   -1.6752 C.2       1 <0>         0.5155
     29 O3          8.2667  -11.3622   -2.2403 O.2       1 <0>        -0.4481
     30 C21        10.5292  -11.8541   -1.7852 C.3       1 <0>        -0.0947
     31 C22        10.2504  -13.0588   -2.6465 C.ar      1 <0>        -0.0912
     32 C23         9.7874  -14.2273   -2.0707 C.ar      1 <0>        -0.0724
     33 C24         9.5310  -15.3326   -2.8596 C.ar      1 <0>        -0.1520
     34 C25         9.7380  -15.2694   -4.2272 C.ar      1 <0>         0.1048
     35 C26        10.2017  -14.0986   -4.8028 C.ar      1 <0>        -0.1520
     36 C27        10.4524  -12.9929   -4.0125 C.ar      1 <0>        -0.0724
     37 F2          9.4881  -16.3495   -4.9994 F         1 <0>        -0.1378
     38 H1         -2.8657   -1.2481    3.2455 H         1 <0>         0.1411
     39 H2         -1.9667   -2.1252    5.3900 H         1 <0>         0.1399
     40 H3          0.1332   -3.4052    5.3903 H         1 <0>         0.1626
     41 H4         -1.6022   -1.6867    1.1548 H         1 <0>         0.1399
     42 H5          4.8354   -5.0670   -2.3520 H         1 <0>         0.1407
     43 H6          3.9315   -4.1766   -4.4523 H         1 <0>         0.1675
     44 H7         -0.0987   -2.1529   -1.7118 H         1 <0>         0.4146
     45 H8          0.0929   -2.0092   -3.3748 H         1 <0>         0.4114
     46 H9          3.6852   -7.3700   -0.1009 H         1 <0>         0.1496
     47 H10         5.6777   -8.8122   -0.1655 H         1 <0>         0.1575
     48 H11         8.1875   -5.3548   -0.0019 H         1 <0>         0.1507
     49 H12         8.9861   -7.7479    0.3748 H         1 <0>         0.4145
     50 H13        10.1067   -9.6034   -0.4963 H         1 <0>         0.4136
     51 H14        11.3262  -11.2622   -2.2352 H         1 <0>         0.1145
     52 H15        10.8361  -12.1809   -0.7916 H         1 <0>         0.1146
     53 H16         9.6264  -14.2765   -1.0039 H         1 <0>         0.1323
     54 H17         9.1697  -16.2454   -2.4096 H         1 <0>         0.1378
     55 H18        10.3638  -14.0482   -5.8693 H         1 <0>         0.1379
     56 H19        10.8099  -12.0782   -4.4618 H         1 <0>         0.1324
@<TRIPOS>BOND
     1    1    6 ar
     2    1    2 ar
     3    1   38 1
     4    2    3 ar
     5    2   39 1
     6    3    4 ar
     7    3   40 1
     8    4    5 ar
     9    5    6 ar
    10    5    7 1
    11    6   41 1
    12    7    8 3
    13    8    9 1
    14    9   14 ar
    15    9   10 ar
    16   10   11 ar
    17   10   16 1
    18   11   12 ar
    19   11   42 1
    20   12   13 ar
    21   12   43 1
    22   13   14 ar
    23   14   15 1
    24   15   44 1
    25   15   45 1
    26   16   17 1
    27   17   22 ar
    28   17   18 ar
    29   18   19 ar
    30   18   46 1
    31   19   20 ar
    32   19   47 1
    33   20   21 ar
    34   20   24 1
    35   21   22 ar
    36   21   48 1
    37   22   23 1
    38   24   25 am
    39   24   49 1
    40   25   26 2
    41   25   27 am
    42   27   28 am
    43   27   50 1
    44   28   29 2
    45   28   30 1
    46   30   31 1
    47   30   51 1
    48   30   52 1
    49   31   36 ar
    50   31   32 ar
    51   32   33 ar
    52   32   53 1
    53   33   34 ar
    54   33   54 1
    55   34   35 ar
    56   34   37 1
    57   35   36 ar
    58   35   55 1
    59   36   56 1
@<TRIPOS>MOLECULE
CHEMBL509101
   50    54     0     0     0
SMALL
USER_CHARGES

@<TRIPOS>ATOM
      1 C1          0.6234    0.6787    1.6092 C.2       1 <0>        -0.2337
      2 C2          1.8025    1.4046    1.4424 C.2       1 <0>         0.0790
      3 C3          2.7539    0.9472    0.5322 C.2       1 <0>        -0.2850
      4 C4          2.4899   -0.2423   -0.1941 C.2       1 <0>         0.5357
      5 O1          3.3061   -0.6631   -0.9956 O.2       1 <0>        -0.5326
      6 N1          1.3349   -0.9054    0.0049 N.am      1 <0>        -0.4430
      7 C5          0.4138   -0.4548    0.8919 C.2       1 <0>         0.1717
      8 C6          1.0809   -2.0791   -0.7162 C.ar      1 <0>         0.0762
      9 C7          1.8265   -3.2237   -0.4664 C.ar      1 <0>        -0.0560
     10 C8          1.5745   -4.3798   -1.1784 C.ar      1 <0>        -0.1414
     11 C9          0.5791   -4.3981   -2.1412 C.ar      1 <0>         0.1215
     12 C10        -0.1652   -3.2575   -2.3922 C.ar      1 <0>        -0.1422
     13 C11         0.0794   -2.1012   -1.6780 C.ar      1 <0>        -0.0727
     14 F1          0.3342   -5.5301   -2.8367 F         1 <0>        -0.1292
     15 C12         4.0094    1.6852    0.3280 C.2       1 <0>         0.5863
     16 O2          4.1612    2.7798    0.8370 O.2       1 <0>        -0.5206
     17 N2          4.9917    1.1491   -0.4230 N.am      1 <0>        -0.6567
     18 C13         6.2443    1.7716   -0.4853 C.ar      1 <0>         0.1866
     19 C14         6.3545    3.1356   -0.2486 C.ar      1 <0>        -0.1372
     20 C15         7.5898    3.7500   -0.3094 C.ar      1 <0>        -0.0659
     21 C16         8.7215    3.0057   -0.6074 C.ar      1 <0>         0.0223
     22 C17         8.6131    1.6410   -0.8445 C.ar      1 <0>         0.1126
     23 C18         7.3774    1.0243   -0.7781 C.ar      1 <0>        -0.1766
     24 F2          9.7154    0.9159   -1.1348 F         1 <0>        -0.1239
     25 O3          9.9374    3.6118   -0.6680 O.3       1 <0>        -0.2347
     26 C19        10.5095    3.7713   -1.8879 C.ar      1 <0>         0.2110
     27 C20         9.8259    3.4333   -3.0493 C.ar      1 <0>        -0.2832
     28 C21        10.4431    3.6111   -4.2750 C.ar      1 <0>         0.1778
     29 N3         11.6650    4.0932   -4.3699 N.ar      1 <0>        -0.5183
     30 C22        12.3684    4.4342   -3.2964 C.ar      1 <0>         0.3161
     31 C23        11.8066    4.2880   -2.0159 C.ar      1 <0>        -0.1773
     32 C24        12.8201    4.7528   -1.0678 C.2       1 <0>        -0.1745
     33 C25        13.8820    5.1397   -1.7917 C.2       1 <0>         0.0508
     34 N4         13.6311    4.9477   -3.1249 N.pl3     1 <0>        -0.5789
     35 H1         14.2501    5.1538   -3.8427 H         1 <0>         0.4228
     36 H2         -0.1224    1.0165    2.3135 H         1 <0>         0.1645
     37 H3          1.9756    2.3073    2.0094 H         1 <0>         0.1577
     38 H4         -0.5036   -1.0077    1.0305 H         1 <0>         0.1751
     39 H5          2.6031   -3.2097    0.2840 H         1 <0>         0.1400
     40 H6          2.1544   -5.2701   -0.9847 H         1 <0>         0.1488
     41 H7         -0.9408   -3.2737   -3.1436 H         1 <0>         0.1492
     42 H8         -0.5047   -1.2134   -1.8704 H         1 <0>         0.1424
     43 H9          4.8310    0.3319   -0.9203 H         1 <0>         0.4282
     44 H10         5.4737    3.7162   -0.0171 H         1 <0>         0.1738
     45 H11         7.6747    4.8108   -0.1252 H         1 <0>         0.1480
     46 H12         7.2929   -0.0373   -0.9579 H         1 <0>         0.1468
     47 H13         8.8233    3.0355   -2.9960 H         1 <0>         0.1386
     48 H14         9.9096    3.3475   -5.1763 H         1 <0>         0.1655
     49 H15        12.7305    4.7796    0.0082 H         1 <0>         0.1531
     50 H16        14.8005    5.5350   -1.3837 H         1 <0>         0.1813
@<TRIPOS>BOND
     1    1    7 2
     2    1    2 1
     3    1   36 1
     4    2    3 2
     5    2   37 1
     6    3    4 1
     7    3   15 1
     8    4    5 2
     9    4    6 am
    10    6    7 1
    11    6    8 1
    12    7   38 1
    13    8   13 ar
    14    8    9 ar
    15    9   10 ar
    16    9   39 1
    17   10   11 ar
    18   10   40 1
    19   11   12 ar
    20   11   14 1
    21   12   13 ar
    22   12   41 1
    23   13   42 1
    24   15   16 2
    25   15   17 am
    26   17   18 1
    27   17   43 1
    28   18   23 ar
    29   18   19 ar
    30   19   20 ar
    31   19   44 1
    32   20   21 ar
    33   20   45 1
    34   21   22 ar
    35   21   25 1
    36   22   23 ar
    37   22   24 1
    38   23   46 1
    39   25   26 1
    40   26   31 ar
    41   26   27 ar
    42   27   28 ar
    43   27   47 1
    44   28   29 ar
    45   28   48 1
    46   29   30 ar
    47   30   34 1
    48   30   31 ar
    49   31   32 1
    50   32   33 2
    51   32   49 1
    52   33   34 1
    53   33   50 1
    54   34   35 1
@<TRIPOS>MOLECULE
CHEMBL510112
   56    59     0     0     0
SMALL
USER_CHARGES

@<TRIPOS>ATOM
      1 C1         -0.8504   -0.0045    7.1366 C.3       1 <0>         0.0236
      2 O1         -0.4401   -1.3559    6.9184 O.3       1 <0>        -0.3001
      3 C2          0.5800   -1.5575    6.0423 C.ar      1 <0>         0.1287
      4 C3          1.1618   -0.4882    5.4248 C.ar      1 <0>        -0.1673
      5 C4          2.2142   -0.6964    4.5209 C.ar      1 <0>        -0.0894
      6 C5          2.8409    0.3860    3.8635 C.ar      1 <0>         0.1558
      7 C6          3.8724    0.1027    2.9859 C.ar      1 <0>        -0.1717
      8 C7          4.2576   -1.2159    2.7782 C.ar      1 <0>         0.1396
      9 N1          3.6687   -2.2139    3.3941 N.ar      1 <0>        -0.4689
     10 C8          2.6647   -2.0127    4.2558 C.ar      1 <0>         0.1523
     11 C9          2.0455   -3.0927    4.9066 C.ar      1 <0>        -0.1713
     12 C10         1.0276   -2.8615    5.7863 C.ar      1 <0>         0.1429
     13 O2          0.4361   -3.9094    6.4176 O.3       1 <0>        -0.3001
     14 C11         0.9353   -5.2140    6.1162 C.3       1 <0>         0.0213
     15 O3          2.4433    1.6633    4.0856 O.3       1 <0>        -0.2399
     16 C12         2.9244    2.2986    5.1845 C.ar      1 <0>         0.3212
     17 C13         2.4667    3.5726    5.4962 C.ar      1 <0>        -0.1749
     18 C14         2.9628    4.2119    6.6179 C.ar      1 <0>         0.0084
     19 C15         3.9091    3.5474    7.3963 C.ar      1 <0>         0.0344
     20 C16         4.3188    2.2761    7.0226 C.ar      1 <0>         0.1480
     21 N2          3.8193    1.6953    5.9485 N.ar      1 <0>        -0.5162
     22 N3          4.4399    4.1559    8.5410 N.pl3     1 <0>        -0.6134
     23 C17         3.6242    4.7885    9.4075 C.2       1 <0>         0.5109
     24 S1          1.9561    4.9438    9.0554 S.2       1 <0>        -0.4880
     25 N4          4.1218    5.2990   10.5514 N.am      1 <0>        -0.6426
     26 C18         3.3062    5.9316   11.4179 C.2       1 <0>         0.4833
     27 O4          2.1248    6.0416   11.1685 O.2       1 <0>        -0.3899
     28 C19         3.8626    6.5024   12.6969 C.3       1 <0>        -0.0936
     29 C20         2.7523    7.1521   13.4819 C.ar      1 <0>        -0.0797
     30 C21         2.4534    8.4868   13.2814 C.ar      1 <0>        -0.1014
     31 C22         1.4350    9.0827   14.0015 C.ar      1 <0>        -0.1183
     32 C23         0.7151    8.3439   14.9217 C.ar      1 <0>        -0.1131
     33 C24         1.0134    7.0089   15.1215 C.ar      1 <0>        -0.1182
     34 C25         2.0290    6.4119   14.3983 C.ar      1 <0>        -0.1014
     35 H1         -1.1833    0.4307    6.1943 H         1 <0>         0.0589
     36 H2         -1.6696    0.0150    7.8553 H         1 <0>         0.1068
     37 H3         -0.0112    0.5716    7.5265 H         1 <0>         0.0567
     38 H4          0.8134    0.5131    5.6309 H         1 <0>         0.1411
     39 H5          4.3757    0.9032    2.4642 H         1 <0>         0.1441
     40 H6          5.0637   -1.4253    2.0906 H         1 <0>         0.1672
     41 H7          2.3773   -4.1025    4.7154 H         1 <0>         0.1537
     42 H8          0.8187   -5.4104    5.0504 H         1 <0>         0.0606
     43 H9          1.9908   -5.2696    6.3826 H         1 <0>         0.0601
     44 H10         0.3773   -5.9571    6.6858 H         1 <0>         0.1056
     45 H11         1.7327    4.0581    4.8701 H         1 <0>         0.1528
     46 H12         2.6253    5.2027    6.8842 H         1 <0>         0.1672
     47 H13         5.0518    1.7543    7.6198 H         1 <0>         0.1620
     48 H14         5.3945    4.1219    8.7100 H         1 <0>         0.4106
     49 H15         5.0670    5.2110   10.7509 H         1 <0>         0.4123
     50 H16         4.3062    5.7021   13.2892 H         1 <0>         0.1090
     51 H17         4.6245    7.2456   12.4619 H         1 <0>         0.1090
     52 H18         3.0159    9.0640   12.5625 H         1 <0>         0.1201
     53 H19         1.2019   10.1257   13.8453 H         1 <0>         0.1238
     54 H20        -0.0801    8.8097   15.4847 H         1 <0>         0.1232
     55 H21         0.4512    6.4318   15.8407 H         1 <0>         0.1238
     56 H22         2.2596    5.3680   14.5517 H         1 <0>         0.1201
@<TRIPOS>BOND
     1    1    2 1
     2    1   35 1
     3    1   36 1
     4    1   37 1
     5    2    3 1
     6    3   12 ar
     7    3    4 ar
     8    4    5 ar
     9    4   38 1
    10    5   10 ar
    11    5    6 ar
    12    6    7 ar
    13    6   15 1
    14    7    8 ar
    15    7   39 1
    16    8    9 ar
    17    8   40 1
    18    9   10 ar
    19   10   11 ar
    20   11   12 ar
    21   11   41 1
    22   12   13 1
    23   13   14 1
    24   14   42 1
    25   14   43 1
    26   14   44 1
    27   15   16 1
    28   16   21 ar
    29   16   17 ar
    30   17   18 ar
    31   17   45 1
    32   18   19 ar
    33   18   46 1
    34   19   20 ar
    35   19   22 1
    36   20   21 ar
    37   20   47 1
    38   22   23 1
    39   22   48 1
    40   23   24 2
    41   23   25 1
    42   25   26 am
    43   25   49 1
    44   26   27 2
    45   26   28 1
    46   28   29 1
    47   28   50 1
    48   28   51 1
    49   29   34 ar
    50   29   30 ar
    51   30   31 ar
    52   30   52 1
    53   31   32 ar
    54   31   53 1
    55   32   33 ar
    56   32   54 1
    57   33   34 ar
    58   33   55 1
    59   34   56 1
@<TRIPOS>MOLECULE
CHEMBL510112__1
   57    60     0     0     0
SMALL
USER_CHARGES

@<TRIPOS>ATOM
      1 C1          6.6053    0.1514   -2.8267 C.3       1 <0>         0.0150
      2 O1          6.2453   -1.2103   -3.0682 O.3       1 <0>        -0.2838
      3 C2          4.9820   -1.4453   -3.5129 C.ar      1 <0>         0.1494
      4 C3          4.1299   -0.3977   -3.7118 C.ar      1 <0>        -0.1505
      5 C4          2.8265   -0.6403   -4.1706 C.ar      1 <0>        -0.0756
      6 C5          1.9170    0.4188   -4.3885 C.ar      1 <0>         0.2719
      7 C6          0.6488    0.1020   -4.8420 C.ar      1 <0>        -0.1774
      8 C7          0.3096   -1.2263   -5.0672 C.ar      1 <0>         0.2065
      9 N1          1.1621   -2.2025   -4.8616 N.ar      1 <0>        -0.4594
     10 C8          2.4049   -1.9685   -4.4236 C.ar      1 <0>         0.1717
     11 C9          3.3049   -3.0255   -4.2090 C.ar      1 <0>        -0.2355
     12 C10         4.5694   -2.7609   -3.7680 C.ar      1 <0>         0.2148
     13 O2          5.4379   -3.7866   -3.5677 O.3       1 <0>        -0.2768
     14 C11         4.9603   -5.1046   -3.8448 C.3       1 <0>         0.0116
     15 O3          2.2759    1.7064   -4.1596 O.3       1 <0>        -0.2382
     16 C12         2.9710    2.3560   -5.1279 C.ar      1 <0>         0.3012
     17 C13         3.4376    3.6429   -4.8918 C.ar      1 <0>        -0.1559
     18 C14         4.1449    4.2967   -5.8845 C.ar      1 <0>         0.0098
     19 C15         4.3626    3.6332   -7.0908 C.ar      1 <0>         0.0624
     20 C16         3.8662    2.3485   -7.2544 C.ar      1 <0>         0.1438
     21 N2          3.2004    1.7542   -6.2827 N.ar      1 <0>        -0.5260
     22 N3          5.0732    4.2561   -8.1250 N.pl3     1 <0>        -0.6214
     23 C17         6.2152    4.9186   -7.8540 C.2       1 <0>         0.5105
     24 S1          6.7400    5.0928   -6.2338 S.2       1 <0>        -0.4790
     25 N4          6.9441    5.4440   -8.8586 N.am      1 <0>        -0.6393
     26 C18         8.0861    6.1065   -8.5877 C.2       1 <0>         0.4831
     27 O4          8.4577    6.2298   -7.4402 O.2       1 <0>        -0.3869
     28 C19         8.9010    6.6940   -9.7110 C.3       1 <0>        -0.0921
     29 C20        10.1192    7.3764   -9.1441 C.ar      1 <0>        -0.0837
     30 C21        10.0615    8.7113   -8.7897 C.ar      1 <0>        -0.1011
     31 C22        11.1789    9.3374   -8.2698 C.ar      1 <0>        -0.1172
     32 C23        12.3539    8.6284   -8.1038 C.ar      1 <0>        -0.1108
     33 C24        12.4114    7.2932   -8.4574 C.ar      1 <0>        -0.1178
     34 C25        11.2927    6.6661   -8.9733 C.ar      1 <0>        -0.1017
     35 H1          6.5091    0.7220   -3.7504 H         1 <0>         0.0661
     36 H2          5.9449    0.5728   -2.0688 H         1 <0>         0.0687
     37 H3          7.6365    0.1980   -2.4766 H         1 <0>         0.1210
     38 H4          4.4573    0.6128   -3.5166 H         1 <0>         0.1660
     39 H5         -0.0745    0.8840   -5.0199 H         1 <0>         0.1904
     40 H6         -0.6833   -1.4620   -5.4208 H         1 <0>         0.2172
     41 H7          2.9990   -4.0440   -4.3972 H         1 <0>         0.1717
     42 H8          4.6648   -5.1713   -4.8919 H         1 <0>         0.0693
     43 H9          5.7510   -5.8274   -3.6437 H         1 <0>         0.1220
     44 H10         4.1007   -5.3205   -3.2103 H         1 <0>         0.0699
     45 H11         3.2502    4.1272   -3.9448 H         1 <0>         0.1598
     46 H12         4.5193    5.2977   -5.7288 H         1 <0>         0.1749
     47 H13         4.0301    1.8273   -8.1860 H         1 <0>         0.1690
     48 H14         4.7433    4.2107   -9.0360 H         1 <0>         0.4141
     49 H15         6.6467    5.3454   -9.7766 H         1 <0>         0.4146
     50 H16         9.2123    5.8988  -10.3885 H         1 <0>         0.1103
     51 H17         8.2982    7.4204  -10.2559 H         1 <0>         0.1108
     52 H18         9.1435    9.2653   -8.9194 H         1 <0>         0.1202
     53 H19        11.1340   10.3805   -7.9936 H         1 <0>         0.1251
     54 H20        13.2272    9.1176   -7.6983 H         1 <0>         0.1246
     55 H21        13.3295    6.7394   -8.3280 H         1 <0>         0.1246
     56 H22        11.3365    5.6220   -9.2461 H         1 <0>         0.1195
     57 H23         0.8846   -3.1164   -5.0311 H         1 <0>         0.4488
@<TRIPOS>BOND
     1    1    2 1
     2    1   35 1
     3    1   36 1
     4    1   37 1
     5    2    3 1
     6    3   12 ar
     7    3    4 ar
     8    4    5 ar
     9    4   38 1
    10    5   10 ar
    11    5    6 ar
    12    6    7 ar
    13    6   15 1
    14    7    8 ar
    15    7   39 1
    16    8    9 ar
    17    8   40 1
    18    9   10 ar
    19    9   57 1
    20   10   11 ar
    21   11   12 ar
    22   11   41 1
    23   12   13 1
    24   13   14 1
    25   14   42 1
    26   14   43 1
    27   14   44 1
    28   15   16 1
    29   16   21 ar
    30   16   17 ar
    31   17   18 ar
    32   17   45 1
    33   18   19 ar
    34   18   46 1
    35   19   20 ar
    36   19   22 1
    37   20   21 ar
    38   20   47 1
    39   22   23 1
    40   22   48 1
    41   23   24 2
    42   23   25 1
    43   25   26 am
    44   25   49 1
    45   26   27 2
    46   26   28 1
    47   28   29 1
    48   28   50 1
    49   28   51 1
    50   29   34 ar
    51   29   30 ar
    52   30   31 ar
    53   30   52 1
    54   31   32 ar
    55   31   53 1
    56   32   33 ar
    57   32   54 1
    58   33   34 ar
    59   33   55 1
    60   34   56 1
@<TRIPOS>MOLECULE
CHEMBL462707
   53    56     0     0     0
SMALL
USER_CHARGES

@<TRIPOS>ATOM
      1 C1          0.2964    1.4468    0.1628 C.3       1 <0>        -0.0458
      2 N1          0.1550   -0.0128    0.0763 N.4       1 <0>        -0.3839
      3 C2         -1.2590   -0.3759    0.2340 C.3       1 <0>        -0.0228
      4 C3         -1.4235   -1.8856    0.0300 C.3       1 <0>         0.1062
      5 N2         -0.5114   -2.5826    0.9500 N.pl3     1 <0>        -0.6234
      6 C4          0.8995   -2.1668    0.9747 C.3       1 <0>         0.1037
      7 C5          0.9543   -0.6438    1.1342 C.3       1 <0>        -0.0223
      8 C6         -0.9691   -3.6034    1.7717 C.ar      1 <0>         0.3033
      9 C7         -2.2570   -4.1312    1.5771 C.ar      1 <0>         0.0524
     10 N3         -2.7062   -5.0954    2.3440 N.ar      1 <0>        -0.4052
     11 C8         -1.9329   -5.5843    3.3225 C.ar      1 <0>         0.0946
     12 C9         -2.3922   -6.6177    4.1567 C.ar      1 <0>        -0.1464
     13 C10        -1.5919   -7.1017    5.1461 C.ar      1 <0>        -0.0751
     14 C11        -0.3142   -6.5895    5.3509 C.ar      1 <0>        -0.2552
     15 C12         0.1734   -5.5759    4.5546 C.ar      1 <0>         0.3238
     16 C13        -0.6350   -5.0548    3.5207 C.ar      1 <0>         0.1162
     17 N4         -0.1900   -4.0748    2.7265 N.ar      1 <0>        -0.4213
     18 N5          1.4549   -5.0694    4.7678 N.2       1 <0>        -1.0472
     19 S1          2.3975   -5.6858    5.9818 S.o2      1 <0>         2.6026
     20 O1          1.7603   -5.3427    7.2047 O.2       1 <0>        -1.0029
     21 O2          2.6899   -7.0302    5.6261 O.2       1 <0>        -1.0034
     22 C14         3.9272   -4.8120    5.9484 C.ar      1 <0>        -0.6206
     23 C15         4.9723   -5.2772    5.1721 C.ar      1 <0>         0.0263
     24 C16         6.1722   -4.5918    5.1459 C.ar      1 <0>        -0.1385
     25 C17         6.3272   -3.4406    5.8957 C.ar      1 <0>        -0.0187
     26 C18         5.2821   -2.9750    6.6711 C.ar      1 <0>        -0.0741
     27 C19         4.0804   -3.6583    6.6940 C.ar      1 <0>         0.0421
     28 N6          5.4482   -1.7428    7.4743 N.pl3     1 <0>         0.0360
     29 O3          6.4980   -1.1436    7.4521 O.2       1 <0>        -0.1607
     30 O4          4.5340   -1.3355    8.1526 O.3       1 <0>        -0.1542
     31 C20        -2.0978   -8.2095    6.0338 C.3       1 <0>         0.5038
     32 F1         -3.3953   -8.5616    5.6467 F         1 <0>        -0.1781
     33 F2         -1.2579   -9.3220    5.9159 F         1 <0>        -0.1737
     34 F3         -2.1100   -7.7731    7.3630 F         1 <0>        -0.1735
     35 H1          1.3447    1.7183    0.0379 H         1 <0>         0.1228
     36 H2         -0.2965    1.9165   -0.6220 H         1 <0>         0.1223
     37 H3         -0.0539    1.7887    1.1367 H         1 <0>         0.1207
     38 H4         -1.5941   -0.1059    1.2354 H         1 <0>         0.1324
     39 H5         -1.8560    0.1579   -0.5054 H         1 <0>         0.1399
     40 H6         -2.4522   -2.1744    0.2454 H         1 <0>         0.1260
     41 H7         -1.1748   -2.1454   -0.9990 H         1 <0>         0.0904
     42 H8          1.4066   -2.6414    1.8148 H         1 <0>         0.1446
     43 H9          1.3827   -2.4549    0.0411 H         1 <0>         0.0825
     44 H10         1.9883   -0.3074    1.0580 H         1 <0>         0.1380
     45 H11         0.5522   -0.3657    2.1084 H         1 <0>         0.1330
     46 H12        -2.8826   -3.7389    0.7889 H         1 <0>         0.1604
     47 H13        -3.3809   -7.0280    4.0131 H         1 <0>         0.1424
     48 H14         0.3016   -6.9903    6.1425 H         1 <0>         0.1208
     49 H15         4.8512   -6.1765    4.5864 H         1 <0>         0.1581
     50 H16         6.9888   -4.9556    4.5400 H         1 <0>         0.1551
     51 H17         7.2650   -2.9053    5.8758 H         1 <0>         0.1577
     52 H18         3.2625   -3.2924    7.2970 H         1 <0>         0.1663
     53 H19         0.4823   -0.3284   -0.8244 H         1 <0>         0.4229
@<TRIPOS>BOND
     1    1    2 1
     2    1   35 1
     3    1   36 1
     4    1   37 1
     5    2    7 1
     6    2    3 1
     7    2   53 1
     8    3    4 1
     9    3   38 1
    10    3   39 1
    11    4    5 1
    12    4   40 1
    13    4   41 1
    14    5    6 1
    15    5    8 1
    16    6    7 1
    17    6   42 1
    18    6   43 1
    19    7   44 1
    20    7   45 1
    21    8   17 ar
    22    8    9 ar
    23    9   10 ar
    24    9   46 1
    25   10   11 ar
    26   11   16 ar
    27   11   12 ar
    28   12   13 ar
    29   12   47 1
    30   13   14 ar
    31   13   31 1
    32   14   15 ar
    33   14   48 1
    34   15   16 ar
    35   15   18 1
    36   16   17 ar
    37   18   19 1
    38   19   20 2
    39   19   21 2
    40   19   22 1
    41   22   27 ar
    42   22   23 ar
    43   23   24 ar
    44   23   49 1
    45   24   25 ar
    46   24   50 1
    47   25   26 ar
    48   25   51 1
    49   26   27 ar
    50   26   28 1
    51   27   52 1
    52   28   29 2
    53   28   30 1
    54   31   32 1
    55   31   33 1
    56   31   34 1
@<TRIPOS>MOLECULE
CHEMBL462707__1
   52    55     0     0     0
SMALL
USER_CHARGES

@<TRIPOS>ATOM
      1 C1          0.2922    1.4475    0.1727 C.3       1 <0>         0.0254
      2 N1          0.1595   -0.0128    0.0846 N.3       1 <0>        -0.5430
      3 C2         -1.2507   -0.4184    0.1540 C.3       1 <0>         0.0390
      4 C3         -1.3605   -1.9218   -0.1220 C.3       1 <0>         0.1313
      5 N2         -0.4627   -2.6330    0.8007 N.pl3     1 <0>        -0.6075
      6 C4          0.9376   -2.1916    0.8877 C.3       1 <0>         0.1301
      7 C5          0.9570   -0.6776    1.1239 C.3       1 <0>         0.0403
      8 C6         -0.9246   -3.6930    1.5688 C.ar      1 <0>         0.3318
      9 C7         -2.1932   -4.2402    1.3115 C.ar      1 <0>         0.0442
     10 N3         -2.6460   -5.2414    2.0271 N.ar      1 <0>        -0.4103
     11 C8         -1.8949   -5.7500    3.0128 C.ar      1 <0>         0.0740
     12 C9         -2.3584   -6.8231    3.7927 C.ar      1 <0>        -0.1390
     13 C10        -1.5807   -7.3266    4.7904 C.ar      1 <0>        -0.0901
     14 C11        -0.3222   -6.7956    5.0570 C.ar      1 <0>        -0.2663
     15 C12         0.1688   -5.7431    4.3151 C.ar      1 <0>         0.3201
     16 C13        -0.6163   -5.2011    3.2741 C.ar      1 <0>         0.1304
     17 N4         -0.1672   -4.1831    2.5316 N.ar      1 <0>        -0.4400
     18 N5          1.4309   -5.2181    4.5899 N.2       1 <0>        -1.0420
     19 S1          2.3463   -5.8592    5.8119 S.o2      1 <0>         2.5981
     20 O1          1.6616   -5.5752    7.0242 O.2       1 <0>        -1.0082
     21 O2          2.6802   -7.1829    5.4176 O.2       1 <0>        -1.0092
     22 C14         3.8564   -4.9527    5.8623 C.ar      1 <0>        -0.6173
     23 C15         4.9368   -5.3667    5.1054 C.ar      1 <0>         0.0272
     24 C16         6.1213   -4.6557    5.1449 C.ar      1 <0>        -0.1396
     25 C17         6.2257   -3.5301    5.9410 C.ar      1 <0>        -0.0202
     26 C18         5.1454   -3.1157    6.6969 C.ar      1 <0>        -0.0746
     27 C19         3.9592   -3.8246    6.6541 C.ar      1 <0>         0.0435
     28 N6          5.2574   -1.9110    7.5496 N.pl3     1 <0>         0.0382
     29 O3          6.2938   -1.2895    7.5848 O.2       1 <0>        -0.1649
     30 O4          4.3124   -1.5485    8.2109 O.3       1 <0>        -0.1551
     31 C20        -2.0910   -8.4770    5.6195 C.3       1 <0>         0.5056
     32 F1         -3.3667   -8.8416    5.1761 F         1 <0>        -0.1812
     33 F2         -1.2230   -9.5665    5.4897 F         1 <0>        -0.1773
     34 F3         -2.1569   -8.0907    6.9625 F         1 <0>        -0.1769
     35 H1          1.3380    1.7258    0.0423 H         1 <0>         0.0683
     36 H2         -0.3081    1.9147   -0.6079 H         1 <0>         0.0673
     37 H3         -0.0547    1.7856    1.1492 H         1 <0>         0.0245
     38 H4         -1.6431   -0.2014    1.1474 H         1 <0>         0.0387
     39 H5         -1.8244    0.1312   -0.5922 H         1 <0>         0.0850
     40 H6         -2.3872   -2.2498    0.0405 H         1 <0>         0.0856
     41 H7         -1.0659   -2.1276   -1.1510 H         1 <0>         0.0735
     42 H8          1.4303   -2.6980    1.7177 H         1 <0>         0.1070
     43 H9          1.4531   -2.4234   -0.0443 H         1 <0>         0.0641
     44 H10         1.9843   -0.3159    1.0811 H         1 <0>         0.0827
     45 H11         0.5338   -0.4569    2.1038 H         1 <0>         0.0397
     46 H12        -2.8009   -3.8321    0.5174 H         1 <0>         0.1617
     47 H13        -3.3324   -7.2484    3.6008 H         1 <0>         0.1363
     48 H14         0.2758   -7.2125    5.8538 H         1 <0>         0.1151
     49 H15         4.8552   -6.2459    4.4835 H         1 <0>         0.1578
     50 H16         6.9655   -4.9795    4.5542 H         1 <0>         0.1538
     51 H17         7.1516   -2.9749    5.9724 H         1 <0>         0.1562
     52 H18         3.1138   -3.4986    7.2420 H         1 <0>         0.1663
@<TRIPOS>BOND
     1    1    2 1
     2    1   35 1
     3    1   36 1
     4    1   37 1
     5    2    7 1
     6    2    3 1
     7    3    4 1
     8    3   38 1
     9    3   39 1
    10    4    5 1
    11    4   40 1
    12    4   41 1
    13    5    6 1
    14    5    8 1
    15    6    7 1
    16    6   42 1
    17    6   43 1
    18    7   44 1
    19    7   45 1
    20    8   17 ar
    21    8    9 ar
    22    9   10 ar
    23    9   46 1
    24   10   11 ar
    25   11   16 ar
    26   11   12 ar
    27   12   13 ar
    28   12   47 1
    29   13   14 ar
    30   13   31 1
    31   14   15 ar
    32   14   48 1
    33   15   16 ar
    34   15   18 1
    35   16   17 ar
    36   18   19 1
    37   19   20 2
    38   19   21 2
    39   19   22 1
    40   22   27 ar
    41   22   23 ar
    42   23   24 ar
    43   23   49 1
    44   24   25 ar
    45   24   50 1
    46   25   26 ar
    47   25   51 1
    48   26   27 ar
    49   26   28 1
    50   27   52 1
    51   28   29 2
    52   28   30 1
    53   31   32 1
    54   31   33 1
    55   31   34 1
@<TRIPOS>MOLECULE
CHEMBL465791
   53    56     0     0     0
SMALL
USER_CHARGES

@<TRIPOS>ATOM
      1 C1          0.2966    1.4468    0.1629 C.3       1 <0>        -0.0473
      2 N1          0.1550   -0.0128    0.0764 N.4       1 <0>        -0.3853
      3 C2         -1.2590   -0.3759    0.2341 C.3       1 <0>        -0.0225
      4 C3         -1.4235   -1.8855    0.0300 C.3       1 <0>         0.0980
      5 N2         -0.5114   -2.5826    0.9500 N.pl3     1 <0>        -0.6156
      6 C4          0.8995   -2.1668    0.9746 C.3       1 <0>         0.1004
      7 C5          0.9544   -0.6439    1.1341 C.3       1 <0>        -0.0220
      8 C6         -0.9690   -3.6031    1.7716 C.ar      1 <0>         0.3657
      9 C7         -2.2572   -4.1310    1.5767 C.ar      1 <0>         0.0623
     10 N3         -2.7066   -5.0951    2.3435 N.ar      1 <0>        -0.3755
     11 C8         -1.9334   -5.5839    3.3219 C.ar      1 <0>         0.0679
     12 C9         -2.3911   -6.6174    4.1570 C.ar      1 <0>        -0.0425
     13 C10        -1.5861   -7.0977    5.1444 C.ar      1 <0>        -0.1290
     14 C11        -0.3090   -6.5808    5.3439 C.ar      1 <0>        -0.1589
     15 C12         0.1719   -5.5760    4.5530 C.ar      1 <0>         0.1616
     16 C13        -0.6351   -5.0548    3.5207 C.ar      1 <0>         0.1385
     17 N4         -0.1898   -4.0744    2.7262 N.ar      1 <0>        -0.4704
     18 O1          1.4201   -5.0815    4.7602 O.3       1 <0>        -0.2834
     19 C14         2.1783   -5.6591    5.8248 C.3       1 <0>         0.0922
     20 C15         3.5259   -4.9891    5.9029 C.ar      1 <0>        -0.0956
     21 C16         4.5899   -5.4896    5.1756 C.ar      1 <0>        -0.0422
     22 C17         5.8258   -4.8751    5.2472 C.ar      1 <0>        -0.1160
     23 C18         5.9980   -3.7596    6.0457 C.ar      1 <0>        -0.0420
     24 C19         4.9341   -3.2587    6.7720 C.ar      1 <0>        -0.0506
     25 C20         3.6967   -3.8709    6.6970 C.ar      1 <0>        -0.0313
     26 N5          5.1186   -2.0648    7.6272 N.pl3     1 <0>         0.0300
     27 O2          6.1999   -1.5277    7.6905 O.2       1 <0>        -0.1487
     28 O3          4.1880   -1.6266    8.2625 O.3       1 <0>        -0.1545
     29 C21        -2.0855   -8.2057    6.0355 C.3       1 <0>         0.5101
     30 F1         -3.3831   -8.5624    5.6534 F         1 <0>        -0.1692
     31 F2         -1.2425   -9.3158    5.9163 F         1 <0>        -0.1693
     32 F3         -2.0945   -7.7675    7.3641 F         1 <0>        -0.1691
     33 H1          1.3448    1.7182    0.0380 H         1 <0>         0.1263
     34 H2         -0.2964    1.9165   -0.6219 H         1 <0>         0.1269
     35 H3         -0.0536    1.7887    1.1368 H         1 <0>         0.1223
     36 H4         -1.5940   -0.1058    1.2356 H         1 <0>         0.1344
     37 H5         -1.8559    0.1580   -0.5053 H         1 <0>         0.1479
     38 H6         -2.4522   -2.1743    0.2455 H         1 <0>         0.1302
     39 H7         -1.1749   -2.1453   -0.9990 H         1 <0>         0.1022
     40 H8          1.4066   -2.6416    1.8146 H         1 <0>         0.1396
     41 H9          1.3827   -2.4550    0.0410 H         1 <0>         0.0931
     42 H10         1.9884   -0.3075    1.0580 H         1 <0>         0.1438
     43 H11         0.5524   -0.3657    2.1084 H         1 <0>         0.1334
     44 H12        -2.8827   -3.7386    0.7886 H         1 <0>         0.1788
     45 H13        -3.3794   -7.0294    4.0160 H         1 <0>         0.1629
     46 H14         0.3097   -6.9790    6.1345 H         1 <0>         0.1534
     47 H15         1.6477   -5.5188    6.7665 H         1 <0>         0.0874
     48 H16         2.3126   -6.7247    5.6388 H         1 <0>         0.0899
     49 H17         4.4554   -6.3609    4.5519 H         1 <0>         0.1470
     50 H18         6.6572   -5.2664    4.6797 H         1 <0>         0.1546
     51 H19         6.9640   -3.2798    6.1021 H         1 <0>         0.1588
     52 H20         2.8644   -3.4773    7.2617 H         1 <0>         0.1554
     53 H21         0.4823   -0.3284   -0.8244 H         1 <0>         0.4259
@<TRIPOS>BOND
     1    1    2 1
     2    1   33 1
     3    1   34 1
     4    1   35 1
     5    2    7 1
     6    2    3 1
     7    2   53 1
     8    3    4 1
     9    3   36 1
    10    3   37 1
    11    4    5 1
    12    4   38 1
    13    4   39 1
    14    5    6 1
    15    5    8 1
    16    6    7 1
    17    6   40 1
    18    6   41 1
    19    7   42 1
    20    7   43 1
    21    8   17 ar
    22    8    9 ar
    23    9   10 ar
    24    9   44 1
    25   10   11 ar
    26   11   16 ar
    27   11   12 ar
    28   12   13 ar
    29   12   45 1
    30   13   14 ar
    31   13   29 1
    32   14   15 ar
    33   14   46 1
    34   15   16 ar
    35   15   18 1
    36   16   17 ar
    37   18   19 1
    38   19   20 1
    39   19   47 1
    40   19   48 1
    41   20   25 ar
    42   20   21 ar
    43   21   22 ar
    44   21   49 1
    45   22   23 ar
    46   22   50 1
    47   23   24 ar
    48   23   51 1
    49   24   25 ar
    50   24   26 1
    51   25   52 1
    52   26   27 2
    53   26   28 1
    54   29   30 1
    55   29   31 1
    56   29   32 1
@<TRIPOS>MOLECULE
CHEMBL465791__1
   52    55     0     0     0
SMALL
USER_CHARGES

@<TRIPOS>ATOM
      1 C1          0.2928    1.4474    0.1730 C.3       1 <0>         0.0240
      2 N1          0.1599   -0.0129    0.0848 N.3       1 <0>        -0.5428
      3 C2         -1.2504   -0.4183    0.1542 C.3       1 <0>         0.0380
      4 C3         -1.3604   -1.9216   -0.1219 C.3       1 <0>         0.1214
      5 N2         -0.4627   -2.6330    0.8007 N.pl3     1 <0>        -0.5901
      6 C4          0.9376   -2.1918    0.8877 C.3       1 <0>         0.1250
      7 C5          0.9572   -0.6778    1.1240 C.3       1 <0>         0.0393
      8 C6         -0.9249   -3.6922    1.5692 C.ar      1 <0>         0.3814
      9 C7         -2.1942   -4.2388    1.3123 C.ar      1 <0>         0.0597
     10 N3         -2.6475   -5.2394    2.0284 N.ar      1 <0>        -0.3837
     11 C8         -1.8964   -5.7479    3.0139 C.ar      1 <0>         0.0454
     12 C9         -2.3588   -6.8204    3.7954 C.ar      1 <0>        -0.0339
     13 C10        -1.5764   -7.3201    4.7914 C.ar      1 <0>        -0.1493
     14 C11        -0.3180   -6.7848    5.0522 C.ar      1 <0>        -0.1646
     15 C12         0.1667   -5.7420    4.3146 C.ar      1 <0>         0.1566
     16 C13        -0.6171   -5.1999    3.2752 C.ar      1 <0>         0.1509
     17 N4         -0.1674   -4.1821    2.5319 N.ar      1 <0>        -0.4887
     18 O1          1.3963   -5.2300    4.5812 O.3       1 <0>        -0.2809
     19 C14         2.1315   -5.8306    5.6493 C.3       1 <0>         0.0929
     20 C15         3.4610   -5.1365    5.7966 C.ar      1 <0>        -0.0928
     21 C16         4.5589   -5.5880    5.0880 C.ar      1 <0>        -0.0414
     22 C17         5.7782   -4.9514    5.2231 C.ar      1 <0>        -0.1170
     23 C18         5.8999   -3.8627    6.0666 C.ar      1 <0>        -0.0437
     24 C19         4.8021   -3.4107    6.7743 C.ar      1 <0>        -0.0511
     25 C20         3.5814   -4.0449    6.6358 C.ar      1 <0>        -0.0300
     26 N5          4.9324   -2.2454    7.6777 N.pl3     1 <0>         0.0321
     27 O2          5.9992   -1.6890    7.7965 O.2       1 <0>        -0.1532
     28 O3          3.9722   -1.8501    8.2967 O.3       1 <0>        -0.1551
     29 C21        -2.0806   -8.4700    5.6247 C.3       1 <0>         0.5123
     30 F1         -3.3570   -8.8390    5.1866 F         1 <0>        -0.1726
     31 F2         -1.2102   -9.5575    5.4941 F         1 <0>        -0.1733
     32 F3         -2.1427   -8.0811    6.9672 F         1 <0>        -0.1729
     33 H1          1.3386    1.7256    0.0426 H         1 <0>         0.0722
     34 H2         -0.3075    1.9147   -0.6076 H         1 <0>         0.0722
     35 H3         -0.0541    1.7855    1.1495 H         1 <0>         0.0273
     36 H4         -1.6428   -0.2012    1.1476 H         1 <0>         0.0409
     37 H5         -1.8240    0.1315   -0.5920 H         1 <0>         0.0939
     38 H6         -2.3872   -2.2495    0.0406 H         1 <0>         0.0909
     39 H7         -1.0658   -2.1274   -1.1510 H         1 <0>         0.0865
     40 H8          1.4303   -2.6983    1.7177 H         1 <0>         0.1025
     41 H9          1.4531   -2.4236   -0.0443 H         1 <0>         0.0764
     42 H10         1.9846   -0.3163    1.0812 H         1 <0>         0.0894
     43 H11         0.5341   -0.4572    2.1040 H         1 <0>         0.0400
     44 H12        -2.8018   -3.8306    0.5182 H         1 <0>         0.1790
     45 H13        -3.3327   -7.2472    3.6066 H         1 <0>         0.1563
     46 H14         0.2828   -7.1990    5.8483 H         1 <0>         0.1470
     47 H15         1.5674   -5.7359    6.5771 H         1 <0>         0.0842
     48 H16         2.2949   -6.8857    5.4296 H         1 <0>         0.0867
     49 H17         4.4639   -6.4385    4.4291 H         1 <0>         0.1468
     50 H18         6.6360   -5.3045    4.6701 H         1 <0>         0.1533
     51 H19         6.8528   -3.3656    6.1727 H         1 <0>         0.1572
     52 H20         2.7227   -3.6894    7.1860 H         1 <0>         0.1554
@<TRIPOS>BOND
     1    1    2 1
     2    1   33 1
     3    1   34 1
     4    1   35 1
     5    2    7 1
     6    2    3 1
     7    3    4 1
     8    3   36 1
     9    3   37 1
    10    4    5 1
    11    4   38 1
    12    4   39 1
    13    5    6 1
    14    5    8 1
    15    6    7 1
    16    6   40 1
    17    6   41 1
    18    7   42 1
    19    7   43 1
    20    8   17 ar
    21    8    9 ar
    22    9   10 ar
    23    9   44 1
    24   10   11 ar
    25   11   16 ar
    26   11   12 ar
    27   12   13 ar
    28   12   45 1
    29   13   14 ar
    30   13   29 1
    31   14   15 ar
    32   14   46 1
    33   15   16 ar
    34   15   18 1
    35   16   17 ar
    36   18   19 1
    37   19   20 1
    38   19   47 1
    39   19   48 1
    40   20   25 ar
    41   20   21 ar
    42   21   22 ar
    43   21   49 1
    44   22   23 ar
    45   22   50 1
    46   23   24 ar
    47   23   51 1
    48   24   25 ar
    49   24   26 1
    50   25   52 1
    51   26   27 2
    52   26   28 1
    53   29   30 1
    54   29   31 1
    55   29   32 1
@<TRIPOS>MOLECULE
CHEMBL518676
   59    64     0     0     0
SMALL
USER_CHARGES

@<TRIPOS>ATOM
      1 C1          0.6113    0.2286    1.2338 C.3       1 <0>         0.0692
      2 N1         -0.2123   -0.0715    0.0600 N.pl3     1 <0>        -0.4590
      3 C2         -0.0022   -1.0791   -0.8383 C.2       1 <0>        -0.0159
      4 C3         -0.9989   -0.9933   -1.7613 C.2       1 <0>         0.0626
      5 N2         -1.7870    0.0471   -1.4167 N.2       1 <0>        -0.4698
      6 C4         -1.3223    0.5940   -0.3290 C.2       1 <0>         0.1964
      7 C5         -1.1849   -1.8795   -2.9299 C.2       1 <0>        -0.0124
      8 C6         -2.1539   -1.8352   -3.8803 C.2       1 <0>        -0.1339
      9 C7         -2.1583   -2.7786   -4.9248 C.ar      1 <0>         0.1648
     10 C8         -1.1109   -3.7249   -4.8878 C.ar      1 <0>        -0.2080
     11 S1         -0.1869   -3.2668   -3.4442 S.3       1 <0>         0.1029
     12 C9         -0.9851   -4.7120   -5.8474 C.ar      1 <0>         0.2122
     13 C10        -1.9317   -4.7530   -6.8700 C.ar      1 <0>        -0.2370
     14 C11        -2.9426   -3.8072   -6.8697 C.ar      1 <0>         0.1599
     15 N3         -3.0378   -2.8829   -5.9475 N.ar      1 <0>        -0.4768
     16 O1          0.0289   -5.6131   -5.7958 O.3       1 <0>        -0.2379
     17 C12         0.0340   -6.6216   -6.7084 C.ar      1 <0>         0.0543
     18 C13        -0.3861   -7.8912   -6.3410 C.ar      1 <0>        -0.0784
     19 C14        -0.3817   -8.9158   -7.2670 C.ar      1 <0>        -0.0652
     20 C15         0.0438   -8.6757   -8.5670 C.ar      1 <0>         0.1502
     21 C16         0.4646   -7.4050   -8.9359 C.ar      1 <0>        -0.1398
     22 C17         0.4546   -6.3783   -8.0100 C.ar      1 <0>         0.0996
     23 F1          0.8585   -5.1402   -8.3693 F         1 <0>        -0.1200
     24 N4          0.0490   -9.7152   -9.5055 N.pl3     1 <0>        -0.6056
     25 C18        -1.0137  -10.5382   -9.6054 C.2       1 <0>         0.5694
     26 S2         -2.3232  -10.3816   -8.5138 S.2       1 <0>        -0.5396
     27 N5         -1.0455  -11.4843  -10.5647 N.am      1 <0>        -0.5450
     28 C19        -2.1873  -12.3638  -10.8565 C.3       1 <0>         0.0956
     29 C20        -1.6914  -13.2372  -12.0254 C.3       1 <0>         0.0811
     30 N6         -0.3228  -12.7569  -12.2680 N.am      1 <0>        -0.5486
     31 C21        -0.0441  -11.7689  -11.4076 C.2       1 <0>         0.6957
     32 O2          1.0224  -11.1860  -11.3906 O.2       1 <0>        -0.5397
     33 C22         0.5479  -13.2498  -13.2464 C.ar      1 <0>         0.1690
     34 C23         1.8635  -12.8077  -13.2935 C.ar      1 <0>        -0.1490
     35 C24         2.7203  -13.2961  -14.2604 C.ar      1 <0>        -0.0898
     36 C25         2.2694  -14.2243  -15.1809 C.ar      1 <0>        -0.1355
     37 C26         0.9599  -14.6662  -15.1369 C.ar      1 <0>        -0.0905
     38 C27         0.0997  -14.1863  -14.1687 C.ar      1 <0>        -0.1484
     39 H1          0.2372   -0.3291    2.0924 H         1 <0>         0.0826
     40 H2          1.6441   -0.0584    1.0361 H         1 <0>         0.0896
     41 H3          0.5654    1.2967    1.4464 H         1 <0>         0.0934
     42 H4          0.7991   -1.8030   -0.8197 H         1 <0>         0.1825
     43 H5         -1.7536    1.4441    0.1787 H         1 <0>         0.2140
     44 H6         -2.9211   -1.0765   -3.8345 H         1 <0>         0.1546
     45 H7         -1.8775   -5.5044   -7.6439 H         1 <0>         0.1473
     46 H8         -3.6792   -3.8326   -7.6591 H         1 <0>         0.1669
     47 H9         -0.7164   -8.0788   -5.3300 H         1 <0>         0.1541
     48 H10        -0.7090   -9.9042   -6.9800 H         1 <0>         0.1651
     49 H11         0.7960   -7.2179   -9.9467 H         1 <0>         0.1499
     50 H12         0.8174   -9.8430  -10.0836 H         1 <0>         0.4298
     51 H13        -2.4249  -12.9822   -9.9909 H         1 <0>         0.1229
     52 H14        -3.0548  -11.7771  -11.1586 H         1 <0>         0.1200
     53 H15        -1.6828  -14.2891  -11.7401 H         1 <0>         0.1092
     54 H16        -2.3127  -13.0841  -12.9078 H         1 <0>         0.1082
     55 H17         2.2161  -12.0825  -12.5751 H         1 <0>         0.1546
     56 H18         3.7435  -12.9524  -14.2978 H         1 <0>         0.1304
     57 H19         2.9414  -14.6046  -15.9360 H         1 <0>         0.1276
     58 H20         0.6106  -15.3909  -15.8574 H         1 <0>         0.1317
     59 H21        -0.9215  -14.5357  -14.1316 H         1 <0>         0.1287
@<TRIPOS>BOND
     1    1    2 1
     2    1   39 1
     3    1   40 1
     4    1   41 1
     5    2    6 1
     6    2    3 1
     7    3    4 2
     8    3   42 1
     9    4    5 1
    10    4    7 1
    11    5    6 2
    12    6   43 1
    13    7   11 1
    14    7    8 2
    15    8    9 1
    16    8   44 1
    17    9   15 ar
    18    9   10 ar
    19   10   11 1
    20   10   12 ar
    21   12   13 ar
    22   12   16 1
    23   13   14 ar
    24   13   45 1
    25   14   15 ar
    26   14   46 1
    27   16   17 1
    28   17   22 ar
    29   17   18 ar
    30   18   19 ar
    31   18   47 1
    32   19   20 ar
    33   19   48 1
    34   20   21 ar
    35   20   24 1
    36   21   22 ar
    37   21   49 1
    38   22   23 1
    39   24   25 1
    40   24   50 1
    41   25   26 2
    42   25   27 1
    43   27   31 am
    44   27   28 1
    45   28   29 1
    46   28   51 1
    47   28   52 1
    48   29   30 1
    49   29   53 1
    50   29   54 1
    51   30   31 am
    52   30   33 1
    53   31   32 2
    54   33   38 ar
    55   33   34 ar
    56   34   35 ar
    57   34   55 1
    58   35   36 ar
    59   35   56 1
    60   36   37 ar
    61   36   57 1
    62   37   38 ar
    63   37   58 1
    64   38   59 1
@<TRIPOS>MOLECULE
CHEMBL518676__1
   60    65     0     0     0
SMALL
USER_CHARGES

@<TRIPOS>ATOM
      1 C1          0.6113    0.2286    1.2338 C.3       1 <0>         0.0534
      2 N1         -0.2123   -0.0715    0.0600 N.pl3     1 <0>        -0.4044
      3 C2         -0.0022   -1.0791   -0.8383 C.2       1 <0>         0.0472
      4 C3         -0.9989   -0.9933   -1.7613 C.2       1 <0>         0.1249
      5 N2         -1.7870    0.0471   -1.4167 N.pl3     1 <0>        -0.4726
      6 C4         -1.3223    0.5940   -0.3290 C.cat     1 <0>         0.3040
      7 C5         -1.1849   -1.8795   -2.9299 C.2       1 <0>        -0.1216
      8 C6         -2.1539   -1.8352   -3.8803 C.2       1 <0>        -0.0815
      9 C7         -2.1583   -2.7786   -4.9248 C.ar      1 <0>         0.1378
     10 C8         -1.1109   -3.7249   -4.8878 C.ar      1 <0>        -0.1926
     11 S1         -0.1869   -3.2668   -3.4442 S.3       1 <0>         0.1709
     12 C9         -0.9851   -4.7120   -5.8474 C.ar      1 <0>         0.2108
     13 C10        -1.9317   -4.7530   -6.8700 C.ar      1 <0>        -0.2107
     14 C11        -2.9426   -3.8072   -6.8697 C.ar      1 <0>         0.1680
     15 N3         -3.0378   -2.8829   -5.9475 N.ar      1 <0>        -0.4679
     16 O1          0.0289   -5.6131   -5.7958 O.3       1 <0>        -0.2337
     17 C12         0.0340   -6.6216   -6.7084 C.ar      1 <0>         0.0404
     18 C13        -0.3861   -7.8912   -6.3410 C.ar      1 <0>        -0.0751
     19 C14        -0.3817   -8.9158   -7.2670 C.ar      1 <0>        -0.0652
     20 C15         0.0438   -8.6757   -8.5670 C.ar      1 <0>         0.1618
     21 C16         0.4646   -7.4050   -8.9359 C.ar      1 <0>        -0.1399
     22 C17         0.4546   -6.3783   -8.0100 C.ar      1 <0>         0.1014
     23 F1          0.8585   -5.1402   -8.3693 F         1 <0>        -0.1209
     24 N4          0.0490   -9.7152   -9.5055 N.pl3     1 <0>        -0.6097
     25 C18        -1.0137  -10.5382   -9.6054 C.2       1 <0>         0.5723
     26 S2         -2.3232  -10.3816   -8.5138 S.2       1 <0>        -0.5415
     27 N5         -1.0455  -11.4843  -10.5647 N.am      1 <0>        -0.5438
     28 C19        -2.1873  -12.3638  -10.8565 C.3       1 <0>         0.0952
     29 C20        -1.6914  -13.2372  -12.0254 C.3       1 <0>         0.0802
     30 N6         -0.3228  -12.7569  -12.2680 N.am      1 <0>        -0.5463
     31 C21        -0.0441  -11.7689  -11.4076 C.2       1 <0>         0.6952
     32 O2          1.0224  -11.1860  -11.3906 O.2       1 <0>        -0.5398
     33 C22         0.5479  -13.2498  -13.2464 C.ar      1 <0>         0.1657
     34 C23         1.8635  -12.8077  -13.2935 C.ar      1 <0>        -0.1486
     35 C24         2.7203  -13.2961  -14.2604 C.ar      1 <0>        -0.0901
     36 C25         2.2694  -14.2243  -15.1809 C.ar      1 <0>        -0.1331
     37 C26         0.9599  -14.6662  -15.1369 C.ar      1 <0>        -0.0898
     38 C27         0.0997  -14.1863  -14.1687 C.ar      1 <0>        -0.1469
     39 H1          0.2372   -0.3291    2.0924 H         1 <0>         0.1146
     40 H2          1.6441   -0.0584    1.0361 H         1 <0>         0.1203
     41 H3          0.5654    1.2967    1.4464 H         1 <0>         0.1192
     42 H4          0.7991   -1.8030   -0.8197 H         1 <0>         0.2279
     43 H5         -1.7536    1.4441    0.1787 H         1 <0>         0.2683
     44 H6         -2.9211   -1.0765   -3.8345 H         1 <0>         0.1498
     45 H7         -1.8775   -5.5044   -7.6439 H         1 <0>         0.1572
     46 H8         -3.6792   -3.8326   -7.6591 H         1 <0>         0.1768
     47 H9         -0.7164   -8.0788   -5.3300 H         1 <0>         0.1544
     48 H10        -0.7090   -9.9042   -6.9800 H         1 <0>         0.1679
     49 H11         0.7960   -7.2179   -9.9467 H         1 <0>         0.1529
     50 H12         0.8174   -9.8430  -10.0836 H         1 <0>         0.4315
     51 H13        -2.4249  -12.9822   -9.9909 H         1 <0>         0.1238
     52 H14        -3.0548  -11.7771  -11.1586 H         1 <0>         0.1206
     53 H15        -1.6828  -14.2891  -11.7401 H         1 <0>         0.1106
     54 H16        -2.3127  -13.0841  -12.9078 H         1 <0>         0.1095
     55 H17         2.2161  -12.0825  -12.5751 H         1 <0>         0.1538
     56 H18         3.7435  -12.9524  -14.2978 H         1 <0>         0.1309
     57 H19         2.9414  -14.6046  -15.9360 H         1 <0>         0.1288
     58 H20         0.6106  -15.3909  -15.8574 H         1 <0>         0.1329
     59 H21        -0.9215  -14.5357  -14.1316 H         1 <0>         0.1292
     60 H22        -2.5757    0.3391   -1.9001 H         1 <0>         0.4660
@<TRIPOS>BOND
     1    1    2 1
     2    1   39 1
     3    1   40 1
     4    1   41 1
     5    2    6 1
     6    2    3 1
     7    3    4 2
     8    3   42 1
     9    4    5 1
    10    4    7 1
    11    5    6 2
    12    5   60 1
    13    6   43 1
    14    7   11 1
    15    7    8 2
    16    8    9 1
    17    8   44 1
    18    9   15 ar
    19    9   10 ar
    20   10   11 1
    21   10   12 ar
    22   12   13 ar
    23   12   16 1
    24   13   14 ar
    25   13   45 1
    26   14   15 ar
    27   14   46 1
    28   16   17 1
    29   17   22 ar
    30   17   18 ar
    31   18   19 ar
    32   18   47 1
    33   19   20 ar
    34   19   48 1
    35   20   21 ar
    36   20   24 1
    37   21   22 ar
    38   21   49 1
    39   22   23 1
    40   24   25 1
    41   24   50 1
    42   25   26 2
    43   25   27 1
    44   27   31 am
    45   27   28 1
    46   28   29 1
    47   28   51 1
    48   28   52 1
    49   29   30 1
    50   29   53 1
    51   29   54 1
    52   30   31 am
    53   30   33 1
    54   31   32 2
    55   33   38 ar
    56   33   34 ar
    57   34   35 ar
    58   34   55 1
    59   35   36 ar
    60   35   56 1
    61   36   37 ar
    62   36   57 1
    63   37   38 ar
    64   37   58 1
    65   38   59 1
@<TRIPOS>MOLECULE
CHEMBL551458
   56    61     0     0     0
SMALL
USER_CHARGES

@<TRIPOS>ATOM
      1 C1          0.2971    1.4467    0.1631 C.3       1 <0>        -0.0470
      2 N1          0.1553   -0.0129    0.0765 N.4       1 <0>        -0.3850
      3 C2         -1.2587   -0.3757    0.2345 C.3       1 <0>        -0.0225
      4 C3         -1.4236   -1.8853    0.0303 C.3       1 <0>         0.1016
      5 N2         -0.5114   -2.5826    0.9500 N.pl3     1 <0>        -0.6273
      6 C4          0.8996   -2.1671    0.9744 C.3       1 <0>         0.1034
      7 C5          0.9548   -0.6442    1.1340 C.3       1 <0>        -0.0225
      8 C6         -0.9696   -3.6044    1.7726 C.ar      1 <0>         0.3919
      9 C7         -2.2462   -4.1244    1.5762 C.ar      1 <0>        -0.2190
     10 C8         -2.6940   -5.1399    2.3974 C.ar      1 <0>        -0.0185
     11 C9         -1.8398   -5.6093    3.4022 C.ar      1 <0>        -0.1235
     12 C10        -0.5771   -5.0397    3.5374 C.ar      1 <0>         0.1601
     13 N3         -0.1844   -4.0747    2.7297 N.ar      1 <0>        -0.5287
     14 C11        -2.2745   -6.6984    4.3105 C.ar      1 <0>        -0.0705
     15 C12        -1.4229   -7.1595    5.3142 C.ar      1 <0>        -0.0727
     16 C13        -1.8745   -8.1809    6.1406 C.ar      1 <0>         0.0508
     17 C14        -3.1648   -8.7079    5.9354 C.ar      1 <0>         0.1282
     18 C15        -3.3364   -9.7494    6.9499 C.2       1 <0>        -0.1404
     19 C16        -2.2028   -9.7901    7.6705 C.2       1 <0>         0.0776
     20 N4         -1.3181   -8.8602    7.2014 N.pl3     1 <0>        -0.8232
     21 S1          0.1957   -8.5907    7.8162 S.o2      1 <0>         2.6772
     22 O1          0.3135   -7.1872    8.0050 O.2       1 <0>        -0.9162
     23 O2          0.3747   -9.5197    8.8765 O.2       1 <0>        -0.9001
     24 C17         1.3531   -9.0290    6.5620 C.ar      1 <0>        -0.6662
     25 C18         2.1500   -8.0842    6.0120 C.ar      1 <0>         0.0859
     26 C19         3.0818   -8.3930    5.0133 C.ar      1 <0>        -0.1219
     27 C20         3.2352   -9.6528    4.5446 C.ar      1 <0>         0.0012
     28 C21         2.4361  -10.7000    5.0716 C.ar      1 <0>         0.0694
     29 C22         1.4581  -10.3756    6.1276 C.ar      1 <0>         0.1295
     30 N5          0.8406  -11.4836    6.4663 N.2       1 <0>        -0.2499
     31 O3          1.3719  -12.5371    5.6812 O.3       1 <0>         0.0879
     32 N6          2.3584  -11.9872    4.8251 N.2       1 <0>        -0.2283
     33 N7         -3.9429   -8.2363    4.9645 N.ar      1 <0>        -0.4361
     34 C23        -3.5434   -7.2676    4.1720 C.ar      1 <0>         0.1180
     35 H1          1.3454    1.7180    0.0380 H         1 <0>         0.1257
     36 H2         -0.2959    1.9166   -0.6215 H         1 <0>         0.1254
     37 H3         -0.0528    1.7886    1.1372 H         1 <0>         0.1218
     38 H4         -1.5935   -0.1057    1.2361 H         1 <0>         0.1331
     39 H5         -1.8558    0.1584   -0.5047 H         1 <0>         0.1440
     40 H6         -2.4523   -2.1739    0.2460 H         1 <0>         0.1286
     41 H7         -1.1753   -2.1450   -0.9988 H         1 <0>         0.0944
     42 H8          1.4068   -2.6420    1.8142 H         1 <0>         0.1388
     43 H9          1.3825   -2.4552    0.0406 H         1 <0>         0.0872
     44 H10         1.9888   -0.3079    1.0576 H         1 <0>         0.1419
     45 H11         0.5531   -0.3660    2.1083 H         1 <0>         0.1324
     46 H12        -2.8787   -3.7377    0.7909 H         1 <0>         0.1391
     47 H13        -3.6798   -5.5617    2.2679 H         1 <0>         0.1473
     48 H14         0.0895   -5.3947    4.3095 H         1 <0>         0.1623
     49 H15        -0.4388   -6.7343    5.4452 H         1 <0>         0.1379
     50 H16        -4.2098  -10.3685    7.0925 H         1 <0>         0.1734
     51 H17        -2.0183  -10.4588    8.4983 H         1 <0>         0.2053
     52 H18         2.0650   -7.0628    6.3526 H         1 <0>         0.1725
     53 H19         3.6950   -7.6031    4.6054 H         1 <0>         0.1679
     54 H20         3.9619   -9.8602    3.7730 H         1 <0>         0.1671
     55 H21        -4.2050   -6.9080    3.3979 H         1 <0>         0.1659
     56 H22         0.4823   -0.3284   -0.8244 H         1 <0>         0.4250
@<TRIPOS>BOND
     1    1    2 1
     2    1   35 1
     3    1   36 1
     4    1   37 1
     5    2    7 1
     6    2    3 1
     7    2   56 1
     8    3    4 1
     9    3   38 1
    10    3   39 1
    11    4    5 1
    12    4   40 1
    13    4   41 1
    14    5    6 1
    15    5    8 1
    16    6    7 1
    17    6   42 1
    18    6   43 1
    19    7   44 1
    20    7   45 1
    21    8   13 ar
    22    8    9 ar
    23    9   10 ar
    24    9   46 1
    25   10   11 ar
    26   10   47 1
    27   11   12 ar
    28   11   14 1
    29   12   13 ar
    30   12   48 1
    31   14   34 ar
    32   14   15 ar
    33   15   16 ar
    34   15   49 1
    35   16   20 1
    36   16   17 ar
    37   17   18 1
    38   17   33 ar
    39   18   19 2
    40   18   50 1
    41   19   20 1
    42   19   51 1
    43   20   21 1
    44   21   22 2
    45   21   23 2
    46   21   24 1
    47   24   29 ar
    48   24   25 ar
    49   25   26 ar
    50   25   52 1
    51   26   27 ar
    52   26   53 1
    53   27   28 ar
    54   27   54 1
    55   28   32 2
    56   28   29 ar
    57   29   30 2
    58   30   31 1
    59   31   32 1
    60   33   34 ar
    61   34   55 1
@<TRIPOS>MOLECULE
CHEMBL551458__1
   56    61     0     0     0
SMALL
USER_CHARGES

@<TRIPOS>ATOM
      1 C1          1.5981   -1.0568   -2.4983 C.3       1 <0>         0.0217
      2 N1          0.8225   -1.2844   -1.2716 N.3       1 <0>        -0.5420
      3 C2          1.6321   -1.9723   -0.2570 C.3       1 <0>         0.0361
      4 C3          0.8528   -2.0289    1.0612 C.3       1 <0>         0.1018
      5 N2         -0.4627   -2.6330    0.8007 N.pl3     1 <0>        -0.5843
      6 C4         -1.2760   -2.0838   -0.2948 C.3       1 <0>         0.1127
      7 C5         -0.4129   -2.0251   -1.5596 C.3       1 <0>         0.0339
      8 C6         -0.9251   -3.6941    1.5696 C.ar      1 <0>         0.4437
      9 C7         -2.2218   -4.1650    1.3817 C.ar      1 <0>        -0.1852
     10 C8         -2.6737   -5.2199    2.1492 C.ar      1 <0>         0.0398
     11 C9         -1.8029   -5.7778    3.0927 C.ar      1 <0>        -0.0683
     12 C10        -0.5204   -5.2530    3.2233 C.ar      1 <0>         0.1345
     13 N3         -0.1248   -4.2479    2.4677 N.ar      1 <0>        -0.4998
     14 C11        -2.2411   -6.9123    3.9418 C.ar      1 <0>        -0.0986
     15 C12        -1.3727   -7.4618    4.8849 C.ar      1 <0>        -0.0604
     16 C13        -1.8283   -8.5229    5.6573 C.ar      1 <0>         0.0486
     17 C14        -3.1393   -8.9998    5.4606 C.ar      1 <0>         0.1476
     18 C15        -3.3099  -10.1010    6.4102 C.2       1 <0>        -0.1425
     19 C16        -2.1562  -10.2202    7.0889 C.2       1 <0>         0.0897
     20 N4         -1.2595   -9.2858    6.6527 N.pl3     1 <0>        -0.8234
     21 S1          0.2799   -9.0989    7.2338 S.o2      1 <0>         2.6751
     22 O1          0.4445   -7.7147    7.5097 O.2       1 <0>        -0.9154
     23 O2          0.4643  -10.1004    8.2248 O.2       1 <0>        -0.8934
     24 C17         1.3844   -9.4846    5.9163 C.ar      1 <0>        -0.6652
     25 C18         2.1914   -8.5276    5.4032 C.ar      1 <0>         0.0818
     26 C19         3.0823   -8.7951    4.3565 C.ar      1 <0>        -0.1297
     27 C20         3.1841  -10.0249    3.8019 C.ar      1 <0>         0.0085
     28 C21         2.3713  -11.0824    4.2854 C.ar      1 <0>         0.0660
     29 C22         1.4364  -10.8019    5.3919 C.ar      1 <0>         0.1269
     30 N5          0.7974  -11.9127    5.6777 N.2       1 <0>        -0.2484
     31 O3          1.2730  -12.9261    4.8086 O.3       1 <0>         0.0927
     32 N6          2.2483  -12.3479    3.9582 N.2       1 <0>        -0.2228
     33 N7         -3.9328   -8.4440    4.5485 N.ar      1 <0>        -0.4309
     34 C23        -3.5298   -7.4363    3.8082 C.ar      1 <0>         0.1332
     35 H1          1.0008   -0.4793   -3.2039 H         1 <0>         0.0808
     36 H2          2.5074   -0.5066   -2.2564 H         1 <0>         0.0786
     37 H3          1.8615   -2.0157   -2.9447 H         1 <0>         0.0333
     38 H4          1.8523   -2.9856   -0.5931 H         1 <0>         0.0461
     39 H5          2.5643   -1.4283   -0.1054 H         1 <0>         0.1062
     40 H6          1.3982   -2.6365    1.7833 H         1 <0>         0.0806
     41 H7          0.7214   -1.0200    1.4525 H         1 <0>         0.1118
     42 H8         -2.1380   -2.7278   -0.4693 H         1 <0>         0.1063
     43 H9         -1.6120   -1.0803   -0.0339 H         1 <0>         0.1067
     44 H10        -0.9637   -1.5194   -2.3527 H         1 <0>         0.1081
     45 H11        -0.1642   -3.0376   -1.8776 H         1 <0>         0.0476
     46 H12        -2.8668   -3.7101    0.6444 H         1 <0>         0.1851
     47 H13        -3.6749   -5.6052    2.0249 H         1 <0>         0.1793
     48 H14         0.1590   -5.6764    3.9482 H         1 <0>         0.2016
     49 H15        -0.3730   -7.0732    5.0109 H         1 <0>         0.1382
     50 H16        -4.1962  -10.7042    6.5406 H         1 <0>         0.1784
     51 H17        -1.9658  -10.9469    7.8649 H         1 <0>         0.2097
     52 H18         2.1470   -7.5291    5.8123 H         1 <0>         0.1713
     53 H19         3.7056   -7.9970    3.9811 H         1 <0>         0.1673
     54 H20         3.8802  -10.2005    2.9950 H         1 <0>         0.1683
     55 H21        -4.2042   -7.0084    3.0813 H         1 <0>         0.1713
     56 H22         0.7752   -3.9024    2.5749 H         1 <0>         0.4396
@<TRIPOS>BOND
     1    1    2 1
     2    1   35 1
     3    1   36 1
     4    1   37 1
     5    2    7 1
     6    2    3 1
     7    3    4 1
     8    3   38 1
     9    3   39 1
    10    4    5 1
    11    4   40 1
    12    4   41 1
    13    5    6 1
    14    5    8 1
    15    6    7 1
    16    6   42 1
    17    6   43 1
    18    7   44 1
    19    7   45 1
    20    8   13 ar
    21    8    9 ar
    22    9   10 ar
    23    9   46 1
    24   10   11 ar
    25   10   47 1
    26   11   12 ar
    27   11   14 1
    28   12   13 ar
    29   12   48 1
    30   13   56 1
    31   14   34 ar
    32   14   15 ar
    33   15   16 ar
    34   15   49 1
    35   16   20 1
    36   16   17 ar
    37   17   18 1
    38   17   33 ar
    39   18   19 2
    40   18   50 1
    41   19   20 1
    42   19   51 1
    43   20   21 1
    44   21   22 2
    45   21   23 2
    46   21   24 1
    47   24   29 ar
    48   24   25 ar
    49   25   26 ar
    50   25   52 1
    51   26   27 ar
    52   26   53 1
    53   27   28 ar
    54   27   54 1
    55   28   32 2
    56   28   29 ar
    57   29   30 2
    58   30   31 1
    59   31   32 1
    60   33   34 ar
    61   34   55 1
@<TRIPOS>MOLECULE
CHEMBL551458__2
   57    62     0     0     0
SMALL
USER_CHARGES

@<TRIPOS>ATOM
      1 C1          1.4658   -1.1942   -2.4663 C.3       1 <0>        -0.0499
      2 N1          0.7239   -1.2976   -1.2027 N.4       1 <0>        -0.3872
      3 C2          1.5508   -1.9909   -0.2069 C.3       1 <0>        -0.0222
      4 C3          0.8249   -1.9983    1.1425 C.3       1 <0>         0.0792
      5 N2         -0.5114   -2.5826    0.9500 N.pl3     1 <0>        -0.6219
      6 C4         -1.3486   -2.0547   -0.1384 C.3       1 <0>         0.0919
      7 C5         -0.5201   -2.0447   -1.4273 C.3       1 <0>        -0.0246
      8 C6         -0.9696   -3.6044    1.7726 C.ar      1 <0>         0.4300
      9 C7         -2.2816   -4.0529    1.6454 C.ar      1 <0>        -0.1743
     10 C8         -2.7293   -5.0688    2.4660 C.ar      1 <0>         0.0447
     11 C9         -1.8389   -5.6113    3.4003 C.ar      1 <0>        -0.0351
     12 C10        -0.5420   -5.1107    3.4687 C.ar      1 <0>         0.1308
     13 N3         -0.1511   -4.1428    2.6637 N.ar      1 <0>        -0.4842
     14 C11        -2.2718   -6.7040    4.3050 C.ar      1 <0>        -0.1228
     15 C12        -1.3837   -7.2380    5.2386 C.ar      1 <0>        -0.0503
     16 C13        -1.8351   -8.2599    6.0646 C.ar      1 <0>         0.0466
     17 C14        -3.1617   -8.7143    5.9292 C.ar      1 <0>         0.1598
     18 C15        -3.3231   -9.7761    6.9242 C.2       1 <0>        -0.1443
     19 C16        -2.1498   -9.8961    7.5683 C.2       1 <0>         0.0990
     20 N4         -1.2490   -8.9984    7.0682 N.pl3     1 <0>        -0.8235
     21 S1          0.3128   -8.8248    7.5907 S.o2      1 <0>         2.6728
     22 O1          0.5158   -7.4355    7.8094 O.2       1 <0>        -0.9154
     23 O2          0.5095   -9.7934    8.6116 O.2       1 <0>        -0.8874
     24 C17         1.3637   -9.2828    6.2526 C.ar      1 <0>        -0.6624
     25 C18         2.1727   -8.3633    5.6779 C.ar      1 <0>         0.0784
     26 C19         3.0219   -8.6885    4.6129 C.ar      1 <0>        -0.1339
     27 C20         3.0789   -9.9396    4.1013 C.ar      1 <0>         0.0126
     28 C21         2.2609  -10.9605    4.6504 C.ar      1 <0>         0.0628
     29 C22         1.3702  -10.6191    5.7761 C.ar      1 <0>         0.1237
     30 N5          0.7180  -11.7042    6.1239 N.2       1 <0>        -0.2460
     31 O3          1.1424  -12.7589    5.2778 O.3       1 <0>         0.0978
     32 N6          2.1002  -12.2340    4.3747 N.2       1 <0>        -0.2189
     33 N7         -3.9739   -8.1745    5.0239 N.ar      1 <0>        -0.4292
     34 C23        -3.5750   -7.2037    4.2337 C.ar      1 <0>         0.1399
     35 H1          0.8561   -0.6726   -3.2040 H         1 <0>         0.1342
     36 H2          2.3896   -0.6397   -2.3009 H         1 <0>         0.1325
     37 H3          1.7024   -2.1935   -2.8316 H         1 <0>         0.1262
     38 H4          1.7261   -3.0168   -0.5309 H         1 <0>         0.1393
     39 H5          2.5049   -1.4742   -0.1036 H         1 <0>         0.1588
     40 H6          1.3875   -2.5983    1.8577 H         1 <0>         0.1177
     41 H7          0.7285   -0.9774    1.5121 H         1 <0>         0.1247
     42 H8         -2.2230   -2.6921   -0.2700 H         1 <0>         0.1431
     43 H9         -1.6645   -1.0396    0.1018 H         1 <0>         0.1204
     44 H10        -1.0919   -1.5676   -2.2233 H         1 <0>         0.1605
     45 H11        -0.2821   -3.0690   -1.7144 H         1 <0>         0.1403
     46 H12        -2.9415   -3.6109    0.9135 H         1 <0>         0.1878
     47 H13        -3.7420   -5.4360    2.3894 H         1 <0>         0.1873
     48 H14         0.1526   -5.5224    4.1861 H         1 <0>         0.2100
     49 H15        -0.3723   -6.8674    5.3169 H         1 <0>         0.1390
     50 H16        -4.2170  -10.3542    7.1062 H         1 <0>         0.1821
     51 H17        -1.9486  -10.5981    8.3640 H         1 <0>         0.2133
     52 H18         2.1632   -7.3498    6.0508 H         1 <0>         0.1699
     53 H19         3.6487   -7.9186    4.1877 H         1 <0>         0.1654
     54 H20         3.7434  -10.1600    3.2789 H         1 <0>         0.1683
     55 H21        -4.2646   -6.7877    3.5142 H         1 <0>         0.1712
     56 H22         0.7591   -3.8138    2.7281 H         1 <0>         0.4399
     57 H23         0.5029   -0.3720   -0.8671 H         1 <0>         0.4314
@<TRIPOS>BOND
     1    1    2 1
     2    1   35 1
     3    1   36 1
     4    1   37 1
     5    2    7 1
     6    2    3 1
     7    2   57 1
     8    3    4 1
     9    3   38 1
    10    3   39 1
    11    4    5 1
    12    4   40 1
    13    4   41 1
    14    5    6 1
    15    5    8 1
    16    6    7 1
    17    6   42 1
    18    6   43 1
    19    7   44 1
    20    7   45 1
    21    8   13 ar
    22    8    9 ar
    23    9   10 ar
    24    9   46 1
    25   10   11 ar
    26   10   47 1
    27   11   12 ar
    28   11   14 1
    29   12   13 ar
    30   12   48 1
    31   13   56 1
    32   14   34 ar
    33   14   15 ar
    34   15   16 ar
    35   15   49 1
    36   16   20 1
    37   16   17 ar
    38   17   18 1
    39   17   33 ar
    40   18   19 2
    41   18   50 1
    42   19   20 1
    43   19   51 1
    44   20   21 1
    45   21   22 2
    46   21   23 2
    47   21   24 1
    48   24   29 ar
    49   24   25 ar
    50   25   26 ar
    51   25   52 1
    52   26   27 ar
    53   26   53 1
    54   27   28 ar
    55   27   54 1
    56   28   32 2
    57   28   29 ar
    58   29   30 2
    59   30   31 1
    60   31   32 1
    61   33   34 ar
    62   34   55 1
@<TRIPOS>MOLECULE
CHEMBL460772
   57    61     0     0     0
SMALL
USER_CHARGES

@<TRIPOS>ATOM
      1 C1          2.3373    0.0170    0.3558 C.3       1 <0>         0.0226
      2 O1          0.9172   -0.1417    0.3473 O.3       1 <0>        -0.3011
      3 C2          0.2645    0.2014   -0.7952 C.ar      1 <0>         0.1150
      4 C3          0.9736    0.6669   -1.8646 C.ar      1 <0>        -0.1547
      5 C4          0.3001    1.0204   -3.0435 C.ar      1 <0>        -0.1042
      6 C5          1.0007    1.5054   -4.1707 C.ar      1 <0>         0.1803
      7 C6          0.2683    1.8334   -5.2981 C.ar      1 <0>        -0.2644
      8 C7         -1.1123    1.6796   -5.2913 C.ar      1 <0>         0.1652
      9 N1         -1.7532    1.2286   -4.2387 N.ar      1 <0>        -0.4910
     10 C8         -1.1084    0.8919   -3.1153 C.ar      1 <0>         0.1716
     11 C9         -1.8102    0.4102   -1.9978 C.ar      1 <0>        -0.1792
     12 C10        -1.1296    0.0679   -0.8651 C.ar      1 <0>         0.1520
     13 O2         -1.8127   -0.4028    0.2111 O.3       1 <0>        -0.2994
     14 C11        -3.2312   -0.5166    0.0801 C.3       1 <0>         0.0208
     15 O3          2.3492    1.6455   -4.1483 O.3       1 <0>        -0.2391
     16 C12         2.9489    2.2191   -5.2241 C.ar      1 <0>         0.0556
     17 C13         3.4571    1.4222   -6.2408 C.ar      1 <0>        -0.0912
     18 C14         4.0664    2.0011   -7.3341 C.ar      1 <0>        -0.0740
     19 C15         4.1719    3.3887   -7.4191 C.ar      1 <0>        -0.0091
     20 C16         3.6607    4.1882   -6.3977 C.ar      1 <0>        -0.1249
     21 C17         3.0473    3.6037   -5.3076 C.ar      1 <0>         0.0996
     22 F1          2.5473    4.3771   -4.3191 F         1 <0>        -0.1216
     23 C18         4.8271    4.0131   -8.5937 C.ar      1 <0>         0.0976
     24 C19         4.9394    5.4035   -8.6789 C.ar      1 <0>        -0.1045
     25 C20         5.5610    5.9364   -9.7975 C.ar      1 <0>        -0.1087
     26 C21         6.0329    5.0584  -10.7627 C.ar      1 <0>         0.0798
     27 N2          5.8842    3.7573  -10.6022 N.ar      1 <0>        -0.2228
     28 N3          5.3151    3.2543   -9.5675 N.ar      1 <0>        -0.2222
     29 C22         6.7155    5.5915  -11.9959 C.3       1 <0>        -0.0275
     30 C23         8.0764    4.9583  -12.1301 C.ar      1 <0>        -0.0853
     31 C24         9.1763    5.5520  -11.5396 C.ar      1 <0>        -0.1153
     32 C25        10.4246    4.9712  -11.6628 C.ar      1 <0>        -0.1220
     33 C26        10.5731    3.7964  -12.3760 C.ar      1 <0>        -0.1180
     34 C27         9.4731    3.2022  -12.9658 C.ar      1 <0>        -0.1194
     35 C28         8.2240    3.7808  -12.8390 C.ar      1 <0>        -0.0934
     36 H1          2.7765   -0.5992   -0.4287 H         1 <0>         0.0583
     37 H2          2.5870    1.0632    0.1788 H         1 <0>         0.0581
     38 H3          2.7316   -0.2918    1.3240 H         1 <0>         0.1053
     39 H4          2.0476    0.7630   -1.8035 H         1 <0>         0.1489
     40 H5          0.7680    2.2076   -6.1793 H         1 <0>         0.1391
     41 H6         -1.6738    1.9388   -6.1768 H         1 <0>         0.1639
     42 H7         -2.8845    0.3063   -2.0364 H         1 <0>         0.1548
     43 H8         -3.4670   -1.1979   -0.7374 H         1 <0>         0.0610
     44 H9         -3.6519   -0.9034    1.0082 H         1 <0>         0.1060
     45 H10        -3.6565    0.4646   -0.1305 H         1 <0>         0.0609
     46 H11         3.3756    0.3473   -6.1753 H         1 <0>         0.1515
     47 H12         4.4620    1.3798   -8.1240 H         1 <0>         0.1559
     48 H13         3.7411    5.2633   -6.4610 H         1 <0>         0.1503
     49 H14         4.5539    6.0425   -7.8983 H         1 <0>         0.1542
     50 H15         5.6744    7.0041   -9.9145 H         1 <0>         0.1564
     51 H16         6.1159    5.3538  -12.8746 H         1 <0>         0.1012
     52 H17         6.8245    6.6728  -11.9121 H         1 <0>         0.0960
     53 H18         9.0603    6.4699  -10.9824 H         1 <0>         0.1194
     54 H19        11.2840    5.4355  -11.2020 H         1 <0>         0.1216
     55 H20        11.5485    3.3430  -12.4728 H         1 <0>         0.1216
     56 H21         9.5891    2.2846  -13.5233 H         1 <0>         0.1234
     57 H22         7.3640    3.3145  -13.2966 H         1 <0>         0.1252
@<TRIPOS>BOND
     1    1    2 1
     2    1   36 1
     3    1   37 1
     4    1   38 1
     5    2    3 1
     6    3   12 ar
     7    3    4 ar
     8    4    5 ar
     9    4   39 1
    10    5   10 ar
    11    5    6 ar
    12    6    7 ar
    13    6   15 1
    14    7    8 ar
    15    7   40 1
    16    8    9 ar
    17    8   41 1
    18    9   10 ar
    19   10   11 ar
    20   11   12 ar
    21   11   42 1
    22   12   13 1
    23   13   14 1
    24   14   43 1
    25   14   44 1
    26   14   45 1
    27   15   16 1
    28   16   21 ar
    29   16   17 ar
    30   17   18 ar
    31   17   46 1
    32   18   19 ar
    33   18   47 1
    34   19   20 ar
    35   19   23 1
    36   20   21 ar
    37   20   48 1
    38   21   22 1
    39   23   28 ar
    40   23   24 ar
    41   24   25 ar
    42   24   49 1
    43   25   26 ar
    44   25   50 1
    45   26   27 ar
    46   26   29 1
    47   27   28 ar
    48   29   30 1
    49   29   51 1
    50   29   52 1
    51   30   35 ar
    52   30   31 ar
    53   31   32 ar
    54   31   53 1
    55   32   33 ar
    56   32   54 1
    57   33   34 ar
    58   33   55 1
    59   34   35 ar
    60   34   56 1
    61   35   57 1
@<TRIPOS>MOLECULE
CHEMBL460774
   60    64     0     0     0
SMALL
USER_CHARGES

@<TRIPOS>ATOM
      1 C1         -0.5936    0.2351    1.8938 C.3       1 <0>         0.0148
      2 O1         -0.2173   -0.4725    0.7107 O.3       1 <0>        -0.2867
      3 C2         -1.1046   -0.4683   -0.3196 C.ar      1 <0>         0.1339
      4 C3         -2.2879    0.1995   -0.1896 C.ar      1 <0>        -0.1358
      5 C4         -3.2030    0.2042   -1.2529 C.ar      1 <0>        -0.0909
      6 C5         -4.4374    0.8849   -1.1548 C.ar      1 <0>         0.2830
      7 C6         -5.2886    0.8452   -2.2450 C.ar      1 <0>        -0.2644
      8 C7         -4.9132    0.1490   -3.3870 C.ar      1 <0>         0.2248
      9 N1         -3.7642   -0.4799   -3.4677 N.ar      1 <0>        -0.4825
     10 C8         -2.8930   -0.4831   -2.4517 C.ar      1 <0>         0.1814
     11 C9         -1.6673   -1.1615   -2.5550 C.ar      1 <0>        -0.2359
     12 C10        -0.7924   -1.1451   -1.5073 C.ar      1 <0>         0.2157
     13 O2          0.3946   -1.7980   -1.6147 O.3       1 <0>        -0.2778
     14 C11         0.6563   -2.4693   -2.8488 C.3       1 <0>         0.0118
     15 O3         -4.7775    1.5561   -0.0268 O.3       1 <0>        -0.2108
     16 C12        -5.9321    2.2727   -0.0344 C.ar      1 <0>         0.0270
     17 C13        -7.1582    1.6066    0.0591 C.ar      1 <0>        -0.1322
     18 C14        -8.3301    2.2964    0.0545 C.ar      1 <0>        -0.0800
     19 C15        -8.3136    3.6991   -0.0455 C.ar      1 <0>        -0.0145
     20 C16        -9.5065    4.4406   -0.0524 C.ar      1 <0>        -0.1565
     21 C17        -9.4518    5.8129   -0.1513 C.ar      1 <0>         0.1869
     22 C18        -8.2215    6.4740   -0.2448 C.ar      1 <0>        -0.1127
     23 C19        -7.0533    5.7792   -0.2407 C.ar      1 <0>        -0.0786
     24 C20        -7.0721    4.3767   -0.1405 C.ar      1 <0>        -0.0647
     25 C21        -5.8795    3.6344   -0.1277 C.ar      1 <0>        -0.0640
     26 N2        -10.6386    6.5543   -0.1589 N.am      1 <0>        -0.6774
     27 C22       -10.6370    7.8331    0.2668 C.2       1 <0>         0.5161
     28 O4         -9.6339    8.3082    0.7559 O.2       1 <0>        -0.4981
     29 C23       -11.8815    8.6726    0.1350 C.3       1 <0>        -0.0992
     30 C24       -11.6170   10.0521    0.6809 C.ar      1 <0>        -0.0790
     31 C25       -11.8482   10.3229    2.0166 C.ar      1 <0>        -0.1037
     32 C26       -11.6056   11.5883    2.5174 C.ar      1 <0>        -0.1175
     33 C27       -11.1312   12.5828    1.6826 C.ar      1 <0>        -0.1137
     34 C28       -10.8991   12.3118    0.3471 C.ar      1 <0>        -0.1181
     35 C29       -11.1377   11.0452   -0.1528 C.ar      1 <0>        -0.1047
     36 H1          0.2013    0.1522    2.6351 H         1 <0>         0.1186
     37 H2         -0.7572    1.2854    1.6525 H         1 <0>         0.0670
     38 H3         -1.5118   -0.1925    2.2964 H         1 <0>         0.0672
     39 H4         -2.5187    0.7214    0.7274 H         1 <0>         0.1725
     40 H5         -6.2411    1.3530   -2.2081 H         1 <0>         0.1857
     41 H6         -5.5857    0.1244   -4.2318 H         1 <0>         0.2117
     42 H7         -1.4159   -1.6906   -3.4624 H         1 <0>         0.1710
     43 H8          0.6445   -1.7470   -3.6650 H         1 <0>         0.0692
     44 H9          1.6344   -2.9481   -2.8015 H         1 <0>         0.1213
     45 H10        -0.1102   -3.2249   -3.0211 H         1 <0>         0.0692
     46 H11        -7.1747    0.5295    0.1357 H         1 <0>         0.1356
     47 H12        -9.2698    1.7691    0.1271 H         1 <0>         0.1434
     48 H13       -10.4597    3.9379    0.0191 H         1 <0>         0.1395
     49 H14        -8.2003    7.5511   -0.3217 H         1 <0>         0.1535
     50 H15        -6.1120    6.3036   -0.3143 H         1 <0>         0.1388
     51 H16        -4.9262    4.1375   -0.1953 H         1 <0>         0.1430
     52 H17       -11.4624    6.1479   -0.4705 H         1 <0>         0.4172
     53 H18       -12.1611    8.7453   -0.9160 H         1 <0>         0.1109
     54 H19       -12.6933    8.2094    0.6958 H         1 <0>         0.1100
     55 H20       -12.2188    9.5459    2.6688 H         1 <0>         0.1197
     56 H21       -11.7869   11.8000    3.5608 H         1 <0>         0.1243
     57 H22       -10.9423   13.5716    2.0737 H         1 <0>         0.1241
     58 H23       -10.5289   13.0888   -0.3052 H         1 <0>         0.1241
     59 H24       -10.9529   10.8325   -1.1953 H         1 <0>         0.1195
     60 H25        -3.5410   -0.9545   -4.2837 H         1 <0>         0.4470
@<TRIPOS>BOND
     1    1    2 1
     2    1   36 1
     3    1   37 1
     4    1   38 1
     5    2    3 1
     6    3   12 ar
     7    3    4 ar
     8    4    5 ar
     9    4   39 1
    10    5   10 ar
    11    5    6 ar
    12    6    7 ar
    13    6   15 1
    14    7    8 ar
    15    7   40 1
    16    8    9 ar
    17    8   41 1
    18    9   10 ar
    19    9   60 1
    20   10   11 ar
    21   11   12 ar
    22   11   42 1
    23   12   13 1
    24   13   14 1
    25   14   43 1
    26   14   44 1
    27   14   45 1
    28   15   16 1
    29   16   25 ar
    30   16   17 ar
    31   17   18 ar
    32   17   46 1
    33   18   19 ar
    34   18   47 1
    35   19   24 ar
    36   19   20 ar
    37   20   21 ar
    38   20   48 1
    39   21   22 ar
    40   21   26 1
    41   22   23 ar
    42   22   49 1
    43   23   24 ar
    44   23   50 1
    45   24   25 ar
    46   25   51 1
    47   26   27 am
    48   26   52 1
    49   27   28 2
    50   27   29 1
    51   29   30 1
    52   29   53 1
    53   29   54 1
    54   30   35 ar
    55   30   31 ar
    56   31   32 ar
    57   31   55 1
    58   32   33 ar
    59   32   56 1
    60   33   34 ar
    61   33   57 1
    62   34   35 ar
    63   34   58 1
    64   35   59 1
@<TRIPOS>MOLECULE
CHEMBL1098517
   50    54     0     0     0
SMALL
USER_CHARGES

@<TRIPOS>ATOM
      1 C1          0.1807    1.1829    0.0565 C.ar      1 <0>        -0.1408
      2 C2          1.3586    1.8802   -0.1306 C.ar      1 <0>        -0.0655
      3 C3          2.4210    1.2834   -0.7918 C.ar      1 <0>         0.0260
      4 C4          2.3017   -0.0170   -1.2674 C.ar      1 <0>         0.1198
      5 C5          1.1236   -0.7153   -1.0806 C.ar      1 <0>        -0.1451
      6 C6          0.0599   -0.1166   -0.4176 C.ar      1 <0>         0.1896
      7 N1         -1.1334   -0.8230   -0.2275 N.pl3     1 <0>        -0.6298
      8 C7         -1.1012   -2.1880   -0.0046 C.ar      1 <0>         0.4024
      9 C8         -2.2964   -2.9254    0.0346 C.ar      1 <0>        -0.0447
     10 N2         -2.2537   -4.2372    0.2496 N.ar      1 <0>        -0.3722
     11 C9         -1.0947   -4.8390    0.4246 C.ar      1 <0>        -0.0008
     12 C10         0.0861   -4.1111    0.3860 C.ar      1 <0>         0.1451
     13 N3          0.0601   -2.8090    0.1680 N.ar      1 <0>        -0.4891
     14 C11        -3.5937   -2.2472   -0.1616 C.2       1 <0>         0.5973
     15 O1         -3.6377   -1.0362   -0.2612 O.2       1 <0>        -0.5233
     16 N4         -4.7288   -2.9707   -0.2301 N.am      1 <0>        -0.6430
     17 C12        -5.9436   -2.3411   -0.5290 C.ar      1 <0>         0.1029
     18 C13        -5.9601   -1.2055   -1.3272 C.ar      1 <0>        -0.0683
     19 C14        -7.1592   -0.5857   -1.6210 C.ar      1 <0>        -0.1392
     20 C15        -8.3453   -1.0955   -1.1198 C.ar      1 <0>         0.1191
     21 C16        -8.3330   -2.2278   -0.3230 C.ar      1 <0>        -0.1698
     22 C17        -7.1357   -2.8558   -0.0314 C.ar      1 <0>         0.1077
     23 F1         -7.1238   -3.9640    0.7411 F         1 <0>        -0.1252
     24 F2         -9.5163   -0.4869   -1.4086 F         1 <0>        -0.1278
     25 F3          3.3368   -0.5982   -1.9124 F         1 <0>        -0.1224
     26 O2          3.5801    1.9708   -0.9754 O.3       1 <0>        -0.2356
     27 C18         3.7850    2.5642   -2.1781 C.ar      1 <0>         0.2103
     28 C19         2.7941    2.5701   -3.1521 C.ar      1 <0>        -0.2839
     29 C20         3.0411    3.1857   -4.3664 C.ar      1 <0>         0.1773
     30 N5          4.1940    3.7678   -4.6242 N.ar      1 <0>        -0.5174
     31 C21         5.1790    3.7950   -3.7340 C.ar      1 <0>         0.3163
     32 C22         5.0013    3.1957   -2.4747 C.ar      1 <0>        -0.1769
     33 C23         6.2500    3.4052   -1.7406 C.2       1 <0>        -0.1748
     34 C24         7.0694    4.0898   -2.5539 C.2       1 <0>         0.0519
     35 N6          6.4475    4.3227   -3.7524 N.pl3     1 <0>        -0.5786
     36 H1          6.8405    4.8003   -4.4996 H         1 <0>         0.4233
     37 H2         -0.6448    1.6470    0.5755 H         1 <0>         0.1446
     38 H3          1.4516    2.8911    0.2381 H         1 <0>         0.1497
     39 H4          1.0300   -1.7258   -1.4502 H         1 <0>         0.1504
     40 H5         -1.9829   -0.3555   -0.2520 H         1 <0>         0.4396
     41 H6         -1.0635   -5.9043    0.5993 H         1 <0>         0.1827
     42 H7          1.0315   -4.6129    0.5305 H         1 <0>         0.1847
     43 H8         -4.7043   -3.9275   -0.0724 H         1 <0>         0.4285
     44 H9         -5.0358   -0.8064   -1.7181 H         1 <0>         0.1595
     45 H10        -7.1717    0.2978   -2.2420 H         1 <0>         0.1502
     46 H11        -9.2590   -2.6233    0.0674 H         1 <0>         0.1559
     47 H12         1.8409    2.0987   -2.9633 H         1 <0>         0.1389
     48 H13         2.2693    3.1885   -5.1219 H         1 <0>         0.1657
     49 H14         6.4698    3.0730   -0.7368 H         1 <0>         0.1534
     50 H15         8.0727    4.4020   -2.3045 H         1 <0>         0.1816
@<TRIPOS>BOND
     1    1    6 ar
     2    1    2 ar
     3    1   37 1
     4    2    3 ar
     5    2   38 1
     6    3    4 ar
     7    3   26 1
     8    4    5 ar
     9    4   25 1
    10    5    6 ar
    11    5   39 1
    12    6    7 1
    13    7    8 1
    14    7   40 1
    15    8   13 ar
    16    8    9 ar
    17    9   10 ar
    18    9   14 1
    19   10   11 ar
    20   11   12 ar
    21   11   41 1
    22   12   13 ar
    23   12   42 1
    24   14   15 2
    25   14   16 am
    26   16   17 1
    27   16   43 1
    28   17   22 ar
    29   17   18 ar
    30   18   19 ar
    31   18   44 1
    32   19   20 ar
    33   19   45 1
    34   20   21 ar
    35   20   24 1
    36   21   22 ar
    37   21   46 1
    38   22   23 1
    39   26   27 1
    40   27   32 ar
    41   27   28 ar
    42   28   29 ar
    43   28   47 1
    44   29   30 ar
    45   29   48 1
    46   30   31 ar
    47   31   35 1
    48   31   32 ar
    49   32   33 1
    50   33   34 2
    51   33   49 1
    52   34   35 1
    53   34   50 1
    54   35   36 1
@<TRIPOS>MOLECULE
CHEMBL462914
   48    51     0     0     0
SMALL
USER_CHARGES

@<TRIPOS>ATOM
      1 C1          0.2962    1.4468    0.1627 C.3       1 <0>        -0.0471
      2 N1          0.1549   -0.0128    0.0763 N.4       1 <0>        -0.3854
      3 C2         -1.2591   -0.3760    0.2338 C.3       1 <0>        -0.0222
      4 C3         -1.4234   -1.8857    0.0299 C.3       1 <0>         0.0975
      5 N2         -0.5114   -2.5826    0.9500 N.pl3     1 <0>        -0.6144
      6 C4          0.8995   -2.1666    0.9748 C.3       1 <0>         0.0985
      7 C5          0.9541   -0.6437    1.1342 C.3       1 <0>        -0.0217
      8 C6         -0.9688   -3.6026    1.7711 C.ar      1 <0>         0.3760
      9 C7         -2.2569   -4.1307    1.5766 C.ar      1 <0>         0.0499
     10 N3         -2.7054   -5.0950    2.3435 N.ar      1 <0>        -0.3722
     11 C8         -1.9317   -5.5836    3.3219 C.ar      1 <0>         0.0347
     12 C9         -2.3909   -6.6174    4.1558 C.ar      1 <0>        -0.0038
     13 C10        -1.5921   -7.1035    5.1464 C.ar      1 <0>        -0.1684
     14 C11        -0.3155   -6.5941    5.3544 C.ar      1 <0>        -0.0348
     15 C12         0.1761   -5.5760    4.5563 C.ar      1 <0>        -0.0232
     16 C13        -0.6342   -5.0535    3.5199 C.ar      1 <0>         0.1659
     17 N4         -0.1894   -4.0744    2.7264 N.ar      1 <0>        -0.4855
     18 C14         1.5369   -5.0379    4.7847 C.ar      1 <0>        -0.0555
     19 C15         2.4258   -4.9084    3.7173 C.ar      1 <0>        -0.0629
     20 C16         3.6918   -4.4071    3.9336 C.ar      1 <0>        -0.1514
     21 C17         4.0827   -4.0317    5.2120 C.ar      1 <0>         0.1178
     22 C18         3.2005   -4.1592    6.2768 C.ar      1 <0>        -0.1436
     23 C19         1.9309   -4.6540    6.0667 C.ar      1 <0>        -0.0830
     24 O1          5.3313   -3.5389    5.4217 O.3       1 <0>        -0.4965
     25 C20        -2.1011   -8.2115    6.0319 C.3       1 <0>         0.5105
     26 F1         -3.3982   -8.5615    5.6421 F         1 <0>        -0.1710
     27 F2         -1.2623   -9.3250    5.9143 F         1 <0>        -0.1687
     28 F3         -2.1151   -7.7767    7.3616 F         1 <0>        -0.1694
     29 H1          1.3445    1.7184    0.0379 H         1 <0>         0.1264
     30 H2         -0.2967    1.9164   -0.6221 H         1 <0>         0.1267
     31 H3         -0.0542    1.7887    1.1366 H         1 <0>         0.1220
     32 H4         -1.5943   -0.1059    1.2352 H         1 <0>         0.1341
     33 H5         -1.8561    0.1578   -0.5057 H         1 <0>         0.1477
     34 H6         -2.4522   -2.1746    0.2452 H         1 <0>         0.1304
     35 H7         -1.1747   -2.1455   -0.9991 H         1 <0>         0.1021
     36 H8          1.4065   -2.6413    1.8149 H         1 <0>         0.1402
     37 H9          1.3828   -2.4548    0.0413 H         1 <0>         0.0936
     38 H10         1.9881   -0.3072    1.0582 H         1 <0>         0.1441
     39 H11         0.5520   -0.3655    2.1084 H         1 <0>         0.1332
     40 H12        -2.8829   -3.7384    0.7888 H         1 <0>         0.1762
     41 H13        -3.3796   -7.0273    4.0111 H         1 <0>         0.1612
     42 H14         0.2984   -6.9965    6.1466 H         1 <0>         0.1525
     43 H15         2.1227   -5.2008    2.7228 H         1 <0>         0.1241
     44 H16         4.3805   -4.3066    3.1077 H         1 <0>         0.1306
     45 H17         3.5079   -3.8667    7.2699 H         1 <0>         0.1349
     46 H18         1.2436   -4.7484    6.8945 H         1 <0>         0.1311
     47 H19         5.3950   -2.5781    5.3332 H         1 <0>         0.3925
     48 H20         0.4823   -0.3284   -0.8244 H         1 <0>         0.4261
@<TRIPOS>BOND
     1    1    2 1
     2    1   29 1
     3    1   30 1
     4    1   31 1
     5    2    7 1
     6    2    3 1
     7    2   48 1
     8    3    4 1
     9    3   32 1
    10    3   33 1
    11    4    5 1
    12    4   34 1
    13    4   35 1
    14    5    6 1
    15    5    8 1
    16    6    7 1
    17    6   36 1
    18    6   37 1
    19    7   38 1
    20    7   39 1
    21    8   17 ar
    22    8    9 ar
    23    9   10 ar
    24    9   40 1
    25   10   11 ar
    26   11   16 ar
    27   11   12 ar
    28   12   13 ar
    29   12   41 1
    30   13   14 ar
    31   13   25 1
    32   14   15 ar
    33   14   42 1
    34   15   16 ar
    35   15   18 1
    36   16   17 ar
    37   18   23 ar
    38   18   19 ar
    39   19   20 ar
    40   19   43 1
    41   20   21 ar
    42   20   44 1
    43   21   22 ar
    44   21   24 1
    45   22   23 ar
    46   22   45 1
    47   23   46 1
    48   24   47 1
    49   25   26 1
    50   25   27 1
    51   25   28 1
@<TRIPOS>MOLECULE
CHEMBL462914__1
   47    50     0     0     0
SMALL
USER_CHARGES

@<TRIPOS>ATOM
      1 C1          0.2925    1.4475    0.1729 C.3       1 <0>         0.0242
      2 N1          0.1597   -0.0129    0.0847 N.3       1 <0>        -0.5428
      3 C2         -1.2505   -0.4184    0.1539 C.3       1 <0>         0.0384
      4 C3         -1.3604   -1.9217   -0.1221 C.3       1 <0>         0.1209
      5 N2         -0.4627   -2.6330    0.8007 N.pl3     1 <0>        -0.5886
      6 C4          0.9376   -2.1916    0.8879 C.3       1 <0>         0.1239
      7 C5          0.9570   -0.6777    1.1241 C.3       1 <0>         0.0399
      8 C6         -0.9246   -3.6916    1.5688 C.ar      1 <0>         0.3906
      9 C7         -2.1939   -4.2385    1.3122 C.ar      1 <0>         0.0495
     10 N3         -2.6463   -5.2393    2.0283 N.ar      1 <0>        -0.3813
     11 C8         -1.8947   -5.7475    3.0140 C.ar      1 <0>         0.0135
     12 C9         -2.3585   -6.8204    3.7942 C.ar      1 <0>         0.0030
     13 C10        -1.5824   -7.3260    4.7930 C.ar      1 <0>        -0.1877
     14 C11        -0.3246   -6.7986    5.0619 C.ar      1 <0>        -0.0398
     15 C12         0.1707   -5.7421    4.3180 C.ar      1 <0>        -0.0296
     16 C13        -0.6163   -5.1986    3.2744 C.ar      1 <0>         0.1771
     17 N4         -0.1670   -4.1821    2.5321 N.ar      1 <0>        -0.5044
     18 C14         1.5114   -5.1849    4.6112 C.ar      1 <0>        -0.0491
     19 C15         2.4318   -4.9982    3.5797 C.ar      1 <0>        -0.0581
     20 C16         3.6788   -4.4793    3.8563 C.ar      1 <0>        -0.1479
     21 C17         4.0193   -4.1432    5.1598 C.ar      1 <0>         0.1123
     22 C18         3.1056   -4.3277    6.1890 C.ar      1 <0>        -0.1464
     23 C19         1.8546   -4.8403    5.9188 C.ar      1 <0>        -0.0868
     24 O1          5.2494   -3.6330    5.4289 O.3       1 <0>        -0.4996
     25 C20        -2.0959   -8.4761    5.6204 C.3       1 <0>         0.5126
     26 F1         -3.3717   -8.8380    5.1749 F         1 <0>        -0.1743
     27 F2         -1.2298   -9.5671    5.4910 F         1 <0>        -0.1726
     28 F3         -2.1630   -8.0907    6.9636 F         1 <0>        -0.1732
     29 H1          1.3383    1.7258    0.0426 H         1 <0>         0.0723
     30 H2         -0.3078    1.9147   -0.6079 H         1 <0>         0.0721
     31 H3         -0.0546    1.7856    1.1493 H         1 <0>         0.0269
     32 H4         -1.6431   -0.2013    1.1473 H         1 <0>         0.0406
     33 H5         -1.8241    0.1313   -0.5924 H         1 <0>         0.0936
     34 H6         -2.3871   -2.2497    0.0402 H         1 <0>         0.0910
     35 H7         -1.0656   -2.1276   -1.1511 H         1 <0>         0.0864
     36 H8          1.4301   -2.6980    1.7180 H         1 <0>         0.1031
     37 H9          1.4532   -2.4234   -0.0440 H         1 <0>         0.0767
     38 H10         1.9843   -0.3160    1.0814 H         1 <0>         0.0896
     39 H11         0.5337   -0.4570    2.1040 H         1 <0>         0.0396
     40 H12        -2.8021   -3.8305    0.5184 H         1 <0>         0.1765
     41 H13        -3.3328   -7.2448    3.6018 H         1 <0>         0.1545
     42 H14         0.2716   -7.2171    5.8593 H         1 <0>         0.1460
     43 H15         2.1679   -5.2600    2.5657 H         1 <0>         0.1261
     44 H16         4.3919   -4.3345    3.0581 H         1 <0>         0.1302
     45 H17         3.3738   -4.0656    7.2018 H         1 <0>         0.1311
     46 H18         1.1427   -4.9791    6.7190 H         1 <0>         0.1286
     47 H19         5.2950   -2.6684    5.3773 H         1 <0>         0.3917
@<TRIPOS>BOND
     1    1    2 1
     2    1   29 1
     3    1   30 1
     4    1   31 1
     5    2    7 1
     6    2    3 1
     7    3    4 1
     8    3   32 1
     9    3   33 1
    10    4    5 1
    11    4   34 1
    12    4   35 1
    13    5    6 1
    14    5    8 1
    15    6    7 1
    16    6   36 1
    17    6   37 1
    18    7   38 1
    19    7   39 1
    20    8   17 ar
    21    8    9 ar
    22    9   10 ar
    23    9   40 1
    24   10   11 ar
    25   11   16 ar
    26   11   12 ar
    27   12   13 ar
    28   12   41 1
    29   13   14 ar
    30   13   25 1
    31   14   15 ar
    32   14   42 1
    33   15   16 ar
    34   15   18 1
    35   16   17 ar
    36   18   23 ar
    37   18   19 ar
    38   19   20 ar
    39   19   43 1
    40   20   21 ar
    41   20   44 1
    42   21   22 ar
    43   21   24 1
    44   22   23 ar
    45   22   45 1
    46   23   46 1
    47   24   47 1
    48   25   26 1
    49   25   27 1
    50   25   28 1
@<TRIPOS>MOLECULE
CHEMBL502531
   47    49     0     0     0
SMALL
USER_CHARGES

@<TRIPOS>ATOM
      1 C1          0.6301   -0.2397    0.9938 C.1       1 <0>        -0.1826
      2 C2          0.0062   -0.0050    0.0273 C.1       1 <0>        -0.1318
      3 C3         -0.7547    0.2812   -1.1515 C.ar      1 <0>        -0.1387
      4 C4         -1.9364    1.0343   -1.0744 C.ar      1 <0>         0.2221
      5 C5         -2.6373    1.2831   -2.2513 C.ar      1 <0>        -0.3050
      6 C6         -2.1545    0.7873   -3.4446 C.ar      1 <0>         0.1991
      7 N1         -1.0400    0.0806   -3.4919 N.ar      1 <0>        -0.5580
      8 C7         -0.3303   -0.1807   -2.4054 C.ar      1 <0>         0.4582
      9 N2          0.8380   -0.9225   -2.5072 N.pl3     1 <0>        -0.8352
     10 O1         -2.3842    1.5070    0.1157 O.3       1 <0>        -0.2326
     11 C8         -3.4767    2.3170    0.1107 C.ar      1 <0>         0.0292
     12 C9         -3.3187    3.6939    0.0591 C.ar      1 <0>        -0.0675
     13 C10        -4.4275    4.5172    0.0539 C.ar      1 <0>        -0.1148
     14 C11        -5.7017    3.9672    0.1000 C.ar      1 <0>         0.1970
     15 C12        -5.8611    2.5890    0.1512 C.ar      1 <0>        -0.1698
     16 C13        -4.7509    1.7649    0.1515 C.ar      1 <0>         0.1205
     17 F1         -4.9050    0.4234    0.1962 F         1 <0>        -0.1209
     18 N3         -6.8262    4.8029    0.0952 N.am      1 <0>        -0.6778
     19 C14        -6.8133    5.9458   -0.6189 C.2       1 <0>         0.6960
     20 O2         -5.8025    6.2874   -1.2010 O.2       1 <0>        -0.5050
     21 N4         -7.9213    6.7101   -0.6875 N.am      1 <0>        -0.6891
     22 C15        -7.9085    7.8530   -1.4016 C.2       1 <0>         0.5155
     23 O3         -6.9002    8.1937   -1.9822 O.2       1 <0>        -0.4482
     24 C16        -9.1474    8.7075   -1.4783 C.3       1 <0>        -0.0947
     25 C17        -8.8704    9.9185   -2.3314 C.ar      1 <0>        -0.0912
     26 C18        -8.3823   11.0747   -1.7516 C.ar      1 <0>        -0.0724
     27 C19        -8.1274   12.1858   -2.5330 C.ar      1 <0>        -0.1521
     28 C20        -8.3611   12.1406   -3.8970 C.ar      1 <0>         0.1047
     29 C21        -8.8499   10.9820   -4.4765 C.ar      1 <0>        -0.1520
     30 C22        -9.0991    9.8706   -3.6939 C.ar      1 <0>        -0.0724
     31 F2         -8.1127   13.2263   -4.6617 F         1 <0>        -0.1378
     32 H1          1.1881   -0.4496    1.8581 H         1 <0>         0.2248
     33 H2         -3.5509    1.8587   -2.2302 H         1 <0>         0.1393
     34 H3         -2.6985    0.9805   -4.3574 H         1 <0>         0.1663
     35 H4          1.3581   -1.1197   -1.7125 H         1 <0>         0.4118
     36 H5          1.1346   -1.2436   -3.3731 H         1 <0>         0.4102
     37 H6         -2.3280    4.1225    0.0232 H         1 <0>         0.1493
     38 H7         -4.3036    5.5894    0.0144 H         1 <0>         0.1574
     39 H8         -6.8519    2.1607    0.1871 H         1 <0>         0.1506
     40 H9         -7.6139    4.5589    0.6059 H         1 <0>         0.4145
     41 H10        -8.7281    6.4375   -0.2229 H         1 <0>         0.4136
     42 H11        -9.9601    8.1304   -1.9196 H         1 <0>         0.1145
     43 H12        -9.4313    9.0267   -0.4755 H         1 <0>         0.1146
     44 H13        -8.2004   11.1099   -0.6876 H         1 <0>         0.1324
     45 H14        -7.7464   13.0890   -2.0798 H         1 <0>         0.1378
     46 H15        -9.0329   10.9458   -5.5403 H         1 <0>         0.1379
     47 H16        -9.4762    8.9653   -4.1464 H         1 <0>         0.1324
@<TRIPOS>BOND
     1    1    2 3
     2    1   32 1
     3    2    3 1
     4    3    8 ar
     5    3    4 ar
     6    4    5 ar
     7    4   10 1
     8    5    6 ar
     9    5   33 1
    10    6    7 ar
    11    6   34 1
    12    7    8 ar
    13    8    9 1
    14    9   35 1
    15    9   36 1
    16   10   11 1
    17   11   16 ar
    18   11   12 ar
    19   12   13 ar
    20   12   37 1
    21   13   14 ar
    22   13   38 1
    23   14   15 ar
    24   14   18 1
    25   15   16 ar
    26   15   39 1
    27   16   17 1
    28   18   19 am
    29   18   40 1
    30   19   20 2
    31   19   21 am
    32   21   22 am
    33   21   41 1
    34   22   23 2
    35   22   24 1
    36   24   25 1
    37   24   42 1
    38   24   43 1
    39   25   30 ar
    40   25   26 ar
    41   26   27 ar
    42   26   44 1
    43   27   28 ar
    44   27   45 1
    45   28   29 ar
    46   28   31 1
    47   29   30 ar
    48   29   46 1
    49   30   47 1
@<TRIPOS>MOLECULE
CHEMBL556627
   59    62     0     0     0
SMALL
USER_CHARGES

@<TRIPOS>ATOM
      1 C1          0.7305    1.7708    0.7496 C.3       1 <0>        -0.1854
      2 C2          0.7362    0.2412    0.7815 C.3       1 <0>         0.1345
      3 C3          1.5776   -0.2411    1.9649 C.3       1 <0>        -0.1862
      4 C4         -0.6976   -0.2711    0.9328 C.3       1 <0>        -0.1407
      5 O1          1.2947   -0.2586   -0.4352 O.3       1 <0>        -0.3561
      6 C5          2.5601    0.1020   -0.7203 C.2       1 <0>         0.6551
      7 O2          3.1736    0.8213    0.0430 O.2       1 <0>        -0.5631
      8 N1          3.1465   -0.3350   -1.8524 N.am      1 <0>        -0.5959
      9 C6          2.4146   -1.2005   -2.7879 C.3       1 <0>         0.0952
     10 C7          2.4332   -0.5482   -4.1759 C.3       1 <0>         0.1065
     11 N2          3.8157   -0.1673   -4.4973 N.pl3     1 <0>        -0.6201
     12 C8          4.5476    0.6982   -3.5618 C.3       1 <0>         0.1038
     13 C9          4.5271    0.0505   -2.1766 C.3       1 <0>         0.1117
     14 C10         4.4242   -0.6208   -5.6722 C.ar      1 <0>         0.1946
     15 C11         5.6842   -0.1586   -6.0310 C.ar      1 <0>        -0.1760
     16 C12         6.2505   -0.6375   -7.2077 C.ar      1 <0>         0.0915
     17 C13         5.5305   -1.5654   -7.9842 C.ar      1 <0>         0.0701
     18 C14         6.3825   -1.8680   -9.1374 C.2       1 <0>        -0.1425
     19 C15         7.5058   -1.1454   -8.9987 C.2       1 <0>         0.0847
     20 N3          7.4448   -0.4037   -7.8508 N.pl3     1 <0>        -0.8172
     21 S1          8.6295    0.6223   -7.3159 S.o2      1 <0>         2.6858
     22 O3          8.8520    0.3079   -5.9482 O.2       1 <0>        -0.9220
     23 O4          9.6680    0.5840   -8.2851 O.2       1 <0>        -0.8998
     24 C16         7.9634    2.2531   -7.3558 C.ar      1 <0>        -0.6364
     25 C17         7.7750    2.9518   -6.1778 C.ar      1 <0>        -0.0150
     26 C18         7.2524    4.2310   -6.2090 C.ar      1 <0>        -0.0862
     27 C19         6.9185    4.8120   -7.4184 C.ar      1 <0>        -0.0567
     28 C20         7.1077    4.1138   -8.5961 C.ar      1 <0>        -0.0641
     29 C21         7.6344    2.8358   -8.5651 C.ar      1 <0>         0.0419
     30 N4          7.8418    2.0900   -9.8268 N.pl3     1 <0>         0.0183
     31 O5          7.6511    2.6346  -10.8892 O.2       1 <0>        -0.1154
     32 O6          8.2018    0.9363   -9.7948 O.3       1 <0>        -0.1502
     33 N5          4.3267   -1.9782   -7.5994 N.ar      1 <0>        -0.4054
     34 C22         3.7738   -1.5435   -6.4882 C.ar      1 <0>         0.0453
     35 H1          1.7520    2.1358    0.6418 H         1 <0>         0.0865
     36 H2          0.1311    2.1144   -0.0934 H         1 <0>         0.0587
     37 H3          0.3046    2.1521    1.6776 H         1 <0>         0.0710
     38 H4          1.1516    0.1401    2.8929 H         1 <0>         0.0710
     39 H5          1.5816   -1.3309    1.9876 H         1 <0>         0.0596
     40 H6          2.5990    0.1238    1.8571 H         1 <0>         0.0868
     41 H7         -1.2970    0.0725    0.0898 H         1 <0>         0.0667
     42 H8         -0.6935   -1.3608    0.9556 H         1 <0>         0.0672
     43 H9         -1.1235    0.1102    1.8609 H         1 <0>         0.0815
     44 H10         2.8965   -2.1770   -2.8361 H         1 <0>         0.0794
     45 H11         1.3843   -1.3145   -2.4510 H         1 <0>         0.1062
     46 H12         2.0671   -1.2574   -4.9183 H         1 <0>         0.1012
     47 H13         1.8008    0.3395   -4.1714 H         1 <0>         0.0746
     48 H14         5.5780    0.8122   -3.8987 H         1 <0>         0.0971
     49 H15         4.0658    1.6747   -3.5136 H         1 <0>         0.0731
     50 H16         4.8916    0.7625   -1.4361 H         1 <0>         0.1099
     51 H17         5.1629   -0.8349   -2.1803 H         1 <0>         0.0803
     52 H18         6.2099    0.5540   -5.4128 H         1 <0>         0.1344
     53 H19         6.1506   -2.5447   -9.9465 H         1 <0>         0.1659
     54 H20         8.3349   -1.1496   -9.6908 H         1 <0>         0.2051
     55 H21         8.0358    2.4980   -5.2331 H         1 <0>         0.1678
     56 H22         7.1046    4.7766   -5.2888 H         1 <0>         0.1595
     57 H23         6.5096    5.8112   -7.4427 H         1 <0>         0.1615
     58 H24         6.8465    4.5675   -9.5407 H         1 <0>         0.1672
     59 H25         2.7962   -1.9051   -6.2054 H         1 <0>         0.1634
@<TRIPOS>BOND
     1    1    2 1
     2    1   35 1
     3    1   36 1
     4    1   37 1
     5    2    3 1
     6    2    4 1
     7    2    5 1
     8    3   38 1
     9    3   39 1
    10    3   40 1
    11    4   41 1
    12    4   42 1
    13    4   43 1
    14    5    6 1
    15    6    7 2
    16    6    8 am
    17    8   13 1
    18    8    9 1
    19    9   10 1
    20    9   44 1
    21    9   45 1
    22   10   11 1
    23   10   46 1
    24   10   47 1
    25   11   12 1
    26   11   14 1
    27   12   13 1
    28   12   48 1
    29   12   49 1
    30   13   50 1
    31   13   51 1
    32   14   34 ar
    33   14   15 ar
    34   15   16 ar
    35   15   52 1
    36   16   20 1
    37   16   17 ar
    38   17   18 1
    39   17   33 ar
    40   18   19 2
    41   18   53 1
    42   19   20 1
    43   19   54 1
    44   20   21 1
    45   21   22 2
    46   21   23 2
    47   21   24 1
    48   24   29 ar
    49   24   25 ar
    50   25   26 ar
    51   25   55 1
    52   26   27 ar
    53   26   56 1
    54   27   28 ar
    55   27   57 1
    56   28   29 ar
    57   28   58 1
    58   29   30 1
    59   30   31 2
    60   30   32 1
    61   33   34 ar
    62   34   59 1
@<TRIPOS>MOLECULE
CHEMBL461140
   54    57     0     0     0
SMALL
USER_CHARGES

@<TRIPOS>ATOM
      1 C1          0.8655   -0.3580   -0.9927 C.3       1 <0>        -0.0557
      2 N1         -0.0118   -0.0050    0.1314 N.4       1 <0>        -0.3902
      3 C2         -0.0443    1.4554    0.2873 C.3       1 <0>        -0.0481
      4 C3         -1.3696   -0.4996   -0.1331 C.3       1 <0>        -0.0042
      5 C4         -1.3621   -2.0295   -0.1431 C.3       1 <0>         0.0144
      6 O1         -1.0223   -2.5127    1.1581 O.3       1 <0>        -0.2734
      7 C5         -0.9763   -3.7245    1.3051 C.ar      1 <0>         0.1816
      8 C6         -1.2475   -4.5814    0.2117 C.ar      1 <0>        -0.2693
      9 C7         -1.1962   -5.9258    0.3761 C.ar      1 <0>        -0.0261
     10 C8         -0.8726   -6.4721    1.6385 C.ar      1 <0>        -0.1373
     11 C9         -0.6021   -5.6176    2.7310 C.ar      1 <0>        -0.0307
     12 C10        -0.6461   -4.2728    2.5675 C.ar      1 <0>        -0.1848
     13 C11        -0.8200   -7.8714    1.8083 C.2       1 <0>        -0.0436
     14 C12        -0.5043   -8.4049    3.0398 C.2       1 <0>        -0.1620
     15 C13        -0.4517   -9.8044    3.2097 C.2       1 <0>         0.2001
     16 C14        -0.1372  -10.3462    4.4598 C.2       1 <0>        -0.1417
     17 C15        -0.0914  -11.7421    4.6022 C.2       1 <0>         0.1574
     18 C16        -0.3640  -12.5517    3.4796 C.2       1 <0>        -0.1731
     19 C17        -0.6635  -11.9801    2.2908 C.2       1 <0>         0.1347
     20 N2         -0.7136  -10.6321    2.1536 N.pl3     1 <0>        -0.5541
     21 C18         0.2362  -12.3507    5.9008 C.2       1 <0>        -0.0471
     22 C19         0.3203  -13.7972    6.1713 C.2       1 <0>        -0.0901
     23 C20         0.6501  -13.9131    7.4997 C.2       1 <0>        -0.2983
     24 C21         0.7631  -12.5352    8.0232 C.2       1 <0>         0.2336
     25 N3          0.5083  -11.6882    7.0127 N.2       1 <0>        -0.4599
     26 N4          1.0778  -12.3893    9.3033 N.2       1 <0>        -0.4999
     27 C22         1.2850  -13.4344   10.0905 C.cat     1 <0>         0.3409
     28 N5          1.2061  -14.6839    9.7112 N.am      1 <0>        -0.6365
     29 H1          1.3740  -15.3872   10.3578 H         1 <0>         0.4152
     30 C23         0.8959  -15.0169    8.4387 C.2       1 <0>         0.5630
     31 O2          0.8228  -16.1811    8.0853 O.2       1 <0>        -0.5337
     32 H2          1.8730    0.0089   -0.7965 H         1 <0>         0.1296
     33 H3          0.8896   -1.4416   -1.1084 H         1 <0>         0.1201
     34 H4          0.4849    0.0966   -1.9073 H         1 <0>         0.1266
     35 H5         -0.4426    1.9089   -0.6204 H         1 <0>         0.1244
     36 H6         -0.6804    1.7164    1.1331 H         1 <0>         0.1262
     37 H7          0.9658    1.8244    0.4648 H         1 <0>         0.1277
     38 H8         -2.0438   -0.1446    0.6464 H         1 <0>         0.1465
     39 H9         -1.7081   -0.1315   -1.1016 H         1 <0>         0.1549
     40 H10        -2.3506   -2.3959   -0.4201 H         1 <0>         0.1234
     41 H11        -0.6274   -2.3845   -0.8658 H         1 <0>         0.1014
     42 H12        -1.4955   -4.1642   -0.7531 H         1 <0>         0.1348
     43 H13        -1.4030   -6.5799   -0.4581 H         1 <0>         0.1318
     44 H14        -0.3552   -6.0363    3.6955 H         1 <0>         0.1429
     45 H15        -0.4343   -3.6200    3.4013 H         1 <0>         0.1403
     46 H16        -1.0269   -8.5248    0.9737 H         1 <0>         0.1190
     47 H17        -0.2973   -7.7515    3.8744 H         1 <0>         0.1569
     48 H18         0.0675   -9.7016    5.3018 H         1 <0>         0.1729
     49 H19        -0.3334  -13.6276    3.5692 H         1 <0>         0.1671
     50 H20        -0.8705  -12.6084    1.4370 H         1 <0>         0.1883
     51 H21         0.1563  -14.6011    5.4690 H         1 <0>         0.1327
     52 H22         1.5381  -13.2404   11.1223 H         1 <0>         0.1928
     53 H23         0.3405   -0.4258    0.9781 H         1 <0>         0.4334
     54 H24        -0.9352  -10.2486    1.2906 H         1 <0>         0.4253
@<TRIPOS>BOND
     1    1    2 1
     2    1   32 1
     3    1   33 1
     4    1   34 1
     5    2    3 1
     6    2    4 1
     7    2   53 1
     8    3   35 1
     9    3   36 1
    10    3   37 1
    11    4    5 1
    12    4   38 1
    13    4   39 1
    14    5    6 1
    15    5   40 1
    16    5   41 1
    17    6    7 1
    18    7   12 ar
    19    7    8 ar
    20    8    9 ar
    21    8   42 1
    22    9   10 ar
    23    9   43 1
    24   10   11 ar
    25   10   13 1
    26   11   12 ar
    27   11   44 1
    28   12   45 1
    29   13   14 2
    30   13   46 1
    31   14   15 1
    32   14   47 1
    33   15   20 1
    34   15   16 2
    35   16   17 1
    36   16   48 1
    37   17   18 1
    38   17   21 1
    39   18   19 2
    40   18   49 1
    41   19   20 1
    42   19   50 1
    43   20   54 1
    44   21   25 2
    45   21   22 1
    46   22   23 2
    47   22   51 1
    48   23   30 1
    49   23   24 1
    50   24   25 1
    51   24   26 2
    52   26   27 1
    53   27   28 2
    54   27   52 1
    55   28   29 1
    56   28   30 am
    57   30   31 2
@<TRIPOS>MOLECULE
CHEMBL461140__1
   54    57     0     0     0
SMALL
USER_CHARGES

@<TRIPOS>ATOM
      1 C1         -0.0178    1.4648    0.0101 C.3       1 <0>        -0.0546
      2 N1          0.0021   -0.0041    0.0020 N.4       1 <0>        -0.3888
      3 C2         -1.3761   -0.5125    0.0124 C.3       1 <0>        -0.0475
      4 C3          0.6897   -0.4778   -1.2066 C.3       1 <0>        -0.0016
      5 C4          2.1588   -0.0534   -1.1571 C.3       1 <0>         0.0238
      6 O1          2.8089   -0.7134   -0.0690 O.3       1 <0>        -0.3282
      7 C5          4.1273   -0.4444    0.1162 C.ar      1 <0>         0.1133
      8 C6          4.7788    0.4428   -0.7313 C.ar      1 <0>        -0.2008
      9 C7          6.1160    0.7188   -0.5474 C.ar      1 <0>        -0.0612
     10 C8          6.8174    0.1043    0.4943 C.ar      1 <0>        -0.0784
     11 C9          6.1574   -0.7879    1.3446 C.ar      1 <0>        -0.0708
     12 C10         4.8187   -1.0532    1.1562 C.ar      1 <0>        -0.1387
     13 C11         8.2473    0.3955    0.6949 C.2       1 <0>        -0.0688
     14 C12         8.9192   -0.1961    1.6965 C.2       1 <0>        -0.1133
     15 C13        10.3491    0.0952    1.8971 C.ar      1 <0>         0.1636
     16 C14        11.0420   -0.5269    2.9353 C.ar      1 <0>        -0.1646
     17 C15        12.3978   -0.2378    3.1097 C.ar      1 <0>         0.0374
     18 C16        13.0022    0.6696    2.2274 C.ar      1 <0>        -0.1571
     19 C17        12.2461    1.2418    1.2259 C.ar      1 <0>         0.1194
     20 N2         10.9694    0.9453    1.0827 N.ar      1 <0>        -0.4837
     21 C18        13.1745   -0.8711    4.1953 C.2       1 <0>         0.0537
     22 C19        14.4907   -0.6553    4.4535 C.2       1 <0>        -0.0755
     23 C20        14.8381   -1.4495    5.5661 C.2       1 <0>        -0.2669
     24 C21        13.6833   -2.1437    5.9591 C.2       1 <0>         0.3013
     25 N3         12.6789   -1.7724    5.1143 N.pl3     1 <0>        -0.5276
     26 H1         11.7641   -2.0928    5.1519 H         1 <0>         0.4232
     27 N4         13.7502   -2.9772    7.0085 N.2       1 <0>        -0.5323
     28 C22        14.8542   -3.1608    7.6725 C.2       1 <0>         0.4019
     29 N5         16.0165   -2.5329    7.3645 N.am      1 <0>        -0.6505
     30 H2         16.8129   -2.7042    7.8911 H         1 <0>         0.4261
     31 C23        16.0685   -1.6684    6.3242 C.2       1 <0>         0.5652
     32 O2         17.1025   -1.0944    6.0303 O.2       1 <0>        -0.5142
     33 H3          1.0047    1.8421    0.0024 H         1 <0>         0.1215
     34 H4         -0.5450    1.8259   -0.8730 H         1 <0>         0.1248
     35 H5         -0.5280    1.8163    0.9069 H         1 <0>         0.1274
     36 H6         -1.9033   -0.1515   -0.8706 H         1 <0>         0.1232
     37 H7         -1.3613   -1.6024    0.0065 H         1 <0>         0.1248
     38 H8         -1.8863   -0.1610    0.9092 H         1 <0>         0.1259
     39 H9          0.6270   -1.5648   -1.2578 H         1 <0>         0.1427
     40 H10         0.2158   -0.0447   -2.0875 H         1 <0>         0.1497
     41 H11         2.6477   -0.3267   -2.0922 H         1 <0>         0.1096
     42 H12         2.2206    1.0258   -1.0166 H         1 <0>         0.0876
     43 H13         4.2362    0.9167   -1.5359 H         1 <0>         0.1296
     44 H14         6.6217    1.4084   -1.2070 H         1 <0>         0.1362
     45 H15         6.6952   -1.2653    2.1504 H         1 <0>         0.1385
     46 H16         4.3069   -1.7389    1.8152 H         1 <0>         0.1350
     47 H17         8.7555    1.0847    0.0368 H         1 <0>         0.1395
     48 H18         8.4110   -0.8853    2.3546 H         1 <0>         0.1299
     49 H19        10.5391   -1.2199    3.5936 H         1 <0>         0.1307
     50 H20        14.0481    0.9179    2.3313 H         1 <0>         0.1456
     51 H21        12.7084    1.9412    0.5451 H         1 <0>         0.1660
     52 H22        15.1500    0.0028    3.9069 H         1 <0>         0.1583
     53 H23        14.8446   -3.8449    8.5081 H         1 <0>         0.2159
     54 H24         0.4901   -0.3383    0.8195 H         1 <0>         0.4338
@<TRIPOS>BOND
     1    1    2 1
     2    1   33 1
     3    1   34 1
     4    1   35 1
     5    2    3 1
     6    2    4 1
     7    2   54 1
     8    3   36 1
     9    3   37 1
    10    3   38 1
    11    4    5 1
    12    4   39 1
    13    4   40 1
    14    5    6 1
    15    5   41 1
    16    5   42 1
    17    6    7 1
    18    7   12 ar
    19    7    8 ar
    20    8    9 ar
    21    8   43 1
    22    9   10 ar
    23    9   44 1
    24   10   11 ar
    25   10   13 1
    26   11   12 ar
    27   11   45 1
    28   12   46 1
    29   13   14 2
    30   13   47 1
    31   14   15 1
    32   14   48 1
    33   15   20 ar
    34   15   16 ar
    35   16   17 ar
    36   16   49 1
    37   17   18 ar
    38   17   21 1
    39   18   19 ar
    40   18   50 1
    41   19   20 ar
    42   19   51 1
    43   21   25 1
    44   21   22 2
    45   22   23 1
    46   22   52 1
    47   23   31 1
    48   23   24 2
    49   24   25 1
    50   24   27 1
    51   25   26 1
    52   27   28 2
    53   28   29 1
    54   28   53 1
    55   29   30 1
    56   29   31 am
    57   31   32 2
@<TRIPOS>MOLECULE
CHEMBL566685
   45    49     0     0     0
SMALL
USER_CHARGES

@<TRIPOS>ATOM
      1 C1         -0.0184    1.5028    0.0103 C.3       1 <0>        -0.0937
      2 C2          0.0021   -0.0041    0.0020 C.2       1 <0>         0.0939
      3 C3          0.0051   -0.6802   -1.1933 C.2       1 <0>        -0.1324
      4 C4          0.0244   -2.0629   -1.0898 C.2       1 <0>        -0.1275
      5 S1          0.0364   -2.2745    0.6813 S.3       1 <0>         0.2787
      6 N1          0.0222   -0.6606    1.1339 N.2       1 <0>        -0.4182
      7 C5          0.0321   -3.0851   -2.1582 C.2       1 <0>         0.2576
      8 C6          0.0468   -4.4550   -1.8140 C.2       1 <0>        -0.1532
      9 C7          0.0540   -5.4020   -2.7881 C.2       1 <0>         0.0118
     10 C8          0.0466   -4.9993   -4.1374 C.2       1 <0>         0.1435
     11 N2          0.0503   -5.6532   -5.2875 N.2       1 <0>        -0.2392
     12 N3          0.0393   -4.8071   -6.2576 N.2       1 <0>        -0.2263
     13 C9          0.0281   -3.5833   -5.7909 C.2       1 <0>         0.1833
     14 N4          0.0322   -3.6589   -4.4421 N.pl3     1 <0>        -0.2855
     15 N5          0.0197   -2.7083   -3.4194 N.2       1 <0>        -0.2340
     16 C10         0.0137   -2.3189   -6.6107 C.3       1 <0>         0.2130
     17 N6         -1.3721   -1.9226   -6.8729 N.pl3     1 <0>        -0.7078
     18 C11        -1.6386   -0.7807   -7.6142 C.ar      1 <0>         0.3026
     19 C12        -0.6103   -0.0030   -8.1214 C.ar      1 <0>        -0.2834
     20 C13        -0.9061    1.1346   -8.8598 C.ar      1 <0>         0.1934
     21 N7         -2.1445    1.5022   -9.0958 N.ar      1 <0>        -0.5195
     22 C14        -3.1845    0.7987   -8.6368 C.ar      1 <0>         0.1635
     23 C15        -2.9703   -0.3779   -7.8804 C.ar      1 <0>        -0.0011
     24 N8         -4.0068   -1.0840   -7.4261 N.ar      1 <0>        -0.4242
     25 C16        -5.2412   -0.7170   -7.6683 C.ar      1 <0>         0.0476
     26 C17        -5.5290    0.4312   -8.4138 C.ar      1 <0>         0.1025
     27 C18        -4.5066    1.2048   -8.8970 C.ar      1 <0>        -0.1099
     28 O1         -6.8196    0.7852   -8.6477 O.3       1 <0>        -0.3066
     29 C19        -7.8336   -0.0612   -8.1023 C.3       1 <0>         0.0211
     30 H1          1.0042    1.8801    0.0026 H         1 <0>         0.0878
     31 H2         -0.5455    1.8639   -0.8728 H         1 <0>         0.0848
     32 H3         -0.5286    1.8543    0.9071 H         1 <0>         0.0832
     33 H4         -0.0071   -0.1714   -2.1459 H         1 <0>         0.1701
     34 H5          0.0528   -4.7500   -0.7750 H         1 <0>         0.1670
     35 H6          0.0656   -6.4508   -2.5307 H         1 <0>         0.1805
     36 H7          0.5212   -1.5248   -6.0629 H         1 <0>         0.0971
     37 H8          0.5269   -2.4931   -7.5564 H         1 <0>         0.1115
     38 H9         -2.1033   -2.4587   -6.5281 H         1 <0>         0.4152
     39 H10         0.4179   -0.2807   -7.9425 H         1 <0>         0.1410
     40 H11        -0.0965    1.7332   -9.2502 H         1 <0>         0.1641
     41 H12        -6.0547   -1.3145   -7.2841 H         1 <0>         0.1652
     42 H13        -4.7098    2.0946   -9.4743 H         1 <0>         0.1552
     43 H14        -7.7268   -1.0660   -8.5111 H         1 <0>         0.0603
     44 H15        -7.7318   -0.0976   -7.0177 H         1 <0>         0.0596
     45 H16        -8.8155    0.3343   -8.3620 H         1 <0>         0.1072
@<TRIPOS>BOND
     1    1    2 1
     2    1   30 1
     3    1   31 1
     4    1   32 1
     5    2    6 2
     6    2    3 1
     7    3    4 2
     8    3   33 1
     9    4    5 1
    10    4    7 1
    11    5    6 1
    12    7   15 2
    13    7    8 1
    14    8    9 2
    15    8   34 1
    16    9   10 1
    17    9   35 1
    18   10   14 1
    19   10   11 2
    20   11   12 1
    21   12   13 2
    22   13   14 1
    23   13   16 1
    24   14   15 1
    25   16   17 1
    26   16   36 1
    27   16   37 1
    28   17   18 1
    29   17   38 1
    30   18   23 ar
    31   18   19 ar
    32   19   20 ar
    33   19   39 1
    34   20   21 ar
    35   20   40 1
    36   21   22 ar
    37   22   27 ar
    38   22   23 ar
    39   23   24 ar
    40   24   25 ar
    41   25   26 ar
    42   25   41 1
    43   26   27 ar
    44   26   28 1
    45   27   42 1
    46   28   29 1
    47   29   43 1
    48   29   44 1
    49   29   45 1
@<TRIPOS>MOLECULE
CHEMBL251796
   60    63     0     0     0
SMALL
USER_CHARGES

@<TRIPOS>ATOM
      1 C1         -0.9421    0.3924    0.6706 C.3       1 <0>        -0.1404
      2 C2         -0.6264   -1.0707    0.8459 C.ar      1 <0>         0.0030
      3 C3         -0.8165   -1.9481   -0.2028 C.ar      1 <0>        -0.1281
      4 C4         -0.5291   -3.2907   -0.0475 C.ar      1 <0>        -0.0302
      5 C5         -0.0462   -3.7673    1.1670 C.ar      1 <0>        -0.1685
      6 C6          0.1485   -2.8933    2.2265 C.ar      1 <0>        -0.0301
      7 C7         -0.1364   -1.5374    2.0670 C.ar      1 <0>        -0.1478
      8 C8          0.0741   -0.5982    3.1895 C.2       1 <0>         0.5725
      9 O1         -0.8413    0.1019    3.5759 O.2       1 <0>        -0.5089
     10 N1          1.2809   -0.5185    3.7842 N.am      1 <0>        -0.6136
     11 C9          2.3719   -1.4191    3.3861 C.3       1 <0>         0.0829
     12 C10         3.5867   -0.5716    2.9885 C.3       1 <0>         0.0786
     13 N2          3.8354    0.4179    4.0463 N.am      1 <0>        -0.5863
     14 C11         2.7445    1.3186    4.4443 C.3       1 <0>         0.0954
     15 C12         1.5313    0.4748    4.8380 C.3       1 <0>         0.0973
     16 C13         5.0423    0.4977    4.6409 C.2       1 <0>         0.5018
     17 O2          5.2105    1.2562    5.5722 O.2       1 <0>        -0.5218
     18 C14         6.1827   -0.3557    4.1487 C.3       1 <0>         0.0045
     19 H1          5.8234   -1.3668    3.9569 H         1 <0>         0.1654
     20 C15         6.7444    0.2398    2.8562 C.3       1 <0>        -0.1823
     21 N3          7.2392   -0.3968    5.1686 N.4       1 <0>        -0.6209
     22 S1          0.3174   -5.4806    1.3595 S.3       1 <0>         0.1019
     23 C16        -1.2315   -6.1987    1.7954 C.2       1 <0>        -0.2536
     24 C17        -1.5258   -7.4785    2.1546 C.2       1 <0>         0.0981
     25 N4         -2.7722   -7.8049    2.4450 N.2       1 <0>        -0.4924
     26 C18        -3.7444   -6.9124    2.3943 C.2       1 <0>         0.3566
     27 S2         -2.8507   -5.4465    1.8959 S.3       1 <0>         0.0190
     28 N5         -5.0994   -7.0696    2.6615 N.pl3     1 <0>        -0.5961
     29 C19        -5.5757   -8.2815    3.1508 C.ar      1 <0>         0.3787
     30 C20        -6.9447   -8.4699    3.3108 C.ar      1 <0>        -0.1925
     31 C21        -7.4053   -9.6800    3.7978 C.ar      1 <0>        -0.0332
     32 C22        -6.4780  -10.6651    4.1099 C.ar      1 <0>        -0.1700
     33 C23        -5.1325  -10.4102    3.9264 C.ar      1 <0>         0.1619
     34 N6         -4.7222   -9.2473    3.4549 N.ar      1 <0>        -0.4592
     35 Br1        -3.8631  -11.7466    4.3490 Br        1 <0>         0.0025
     36 H2         -0.0324    0.9311    0.4052 H         1 <0>         0.0769
     37 H3         -1.6800    0.5124   -0.1226 H         1 <0>         0.0795
     38 H4         -1.3421    0.7920    1.6025 H         1 <0>         0.0917
     39 H5         -1.1915   -1.5840   -1.1478 H         1 <0>         0.1420
     40 H6         -0.6802   -3.9723   -0.8715 H         1 <0>         0.1419
     41 H7          0.5233   -3.2608    3.1704 H         1 <0>         0.1378
     42 H8          2.6354   -2.0665    4.2225 H         1 <0>         0.0828
     43 H9          2.0548   -2.0249    2.5372 H         1 <0>         0.1138
     44 H10         4.4600   -1.2141    2.8759 H         1 <0>         0.0990
     45 H11         3.3831   -0.0588    2.0484 H         1 <0>         0.0962
     46 H12         3.0615    1.9244    5.2932 H         1 <0>         0.1159
     47 H13         2.4809    1.9659    3.6079 H         1 <0>         0.0892
     48 H14         0.6593    1.1194    4.9478 H         1 <0>         0.1167
     49 H15         1.7336   -0.0346    5.7802 H         1 <0>         0.0793
     50 H16         5.9401    0.3548    2.1295 H         1 <0>         0.1105
     51 H17         7.1858    1.2139    3.0667 H         1 <0>         0.0927
     52 H18         7.5074   -0.4251    2.4514 H         1 <0>         0.1026
     53 H19         6.8687   -0.7895    6.0210 H         1 <0>         0.4414
     54 H20         8.0027   -0.9682    4.8390 H         1 <0>         0.4440
     55 H21        -0.7446   -8.2228    2.2016 H         1 <0>         0.1713
     56 H22        -5.7128   -6.3343    2.5069 H         1 <0>         0.4395
     57 H23        -7.6387   -7.6818    3.0584 H         1 <0>         0.1459
     58 H24        -8.4626   -9.8544    3.9326 H         1 <0>         0.1531
     59 H25        -6.8051  -11.6206    4.4925 H         1 <0>         0.1496
     60 H26         7.5718    0.5391    5.3462 H         1 <0>         0.4425
@<TRIPOS>BOND
     1    1    2 1
     2    1   36 1
     3    1   37 1
     4    1   38 1
     5    2    7 ar
     6    2    3 ar
     7    3    4 ar
     8    3   39 1
     9    4    5 ar
    10    4   40 1
    11    5    6 ar
    12    5   22 1
    13    6    7 ar
    14    6   41 1
    15    7    8 1
    16    8    9 2
    17    8   10 am
    18   10   15 1
    19   10   11 1
    20   11   12 1
    21   11   42 1
    22   11   43 1
    23   12   13 1
    24   12   44 1
    25   12   45 1
    26   13   14 1
    27   13   16 am
    28   14   15 1
    29   14   46 1
    30   14   47 1
    31   15   48 1
    32   15   49 1
    33   16   17 2
    34   16   18 1
    35   18   19 1
    36   18   20 1
    37   18   21 1
    38   20   50 1
    39   20   51 1
    40   20   52 1
    41   21   53 1
    42   21   54 1
    43   21   60 1
    44   22   23 1
    45   23   27 1
    46   23   24 2
    47   24   25 1
    48   24   55 1
    49   25   26 2
    50   26   27 1
    51   26   28 1
    52   28   29 1
    53   28   56 1
    54   29   34 ar
    55   29   30 ar
    56   30   31 ar
    57   30   57 1
    58   31   32 ar
    59   31   58 1
    60   32   33 ar
    61   32   59 1
    62   33   34 ar
    63   33   35 1
@<TRIPOS>MOLECULE
CHEMBL251796__1
   59    62     0     0     0
SMALL
USER_CHARGES

@<TRIPOS>ATOM
      1 C1         -0.4153    1.4310    0.0259 C.3       1 <0>        -0.1389
      2 C2         -0.1936   -0.0596    0.0167 C.ar      1 <0>         0.0024
      3 C3         -0.3149   -0.7680   -1.1620 C.ar      1 <0>        -0.1310
      4 C4         -0.1132   -2.1348   -1.1762 C.ar      1 <0>        -0.0330
      5 C5          0.2136   -2.8064   -0.0026 C.ar      1 <0>        -0.1717
      6 C6          0.3382   -2.1032    1.1867 C.ar      1 <0>        -0.0259
      7 C7          0.1400   -0.7228    1.1989 C.ar      1 <0>        -0.1419
      8 C8          0.2769    0.0350    2.4612 C.2       1 <0>         0.5704
      9 O1         -0.6372    0.7342    2.8525 O.2       1 <0>        -0.5224
     10 N1          1.4152   -0.0494    3.1778 N.am      1 <0>        -0.6062
     11 C9          2.4974   -0.9513    2.7593 C.3       1 <0>         0.0856
     12 C10         3.7878   -0.1349    2.6159 C.3       1 <0>         0.0952
     13 N2          3.9693    0.6736    3.8297 N.am      1 <0>        -0.6110
     14 C11         2.8871    1.5755    4.2483 C.3       1 <0>         0.0890
     15 C12         1.5989    0.7633    4.3885 C.3       1 <0>         0.0962
     16 C13         5.1076    0.5892    4.5463 C.2       1 <0>         0.4836
     17 O2          5.9936   -0.1590    4.1913 O.2       1 <0>        -0.5395
     18 C14         5.2794    1.4245    5.7888 C.3       1 <0>         0.0711
     19 H1          4.8692    2.4196    5.6173 H         1 <0>         0.1046
     20 C15         4.5416    0.7626    6.9544 C.3       1 <0>        -0.1434
     21 N3          6.7083    1.5330    6.1122 N.3       1 <0>        -0.8193
     22 S1          0.4685   -4.5497   -0.0266 S.3       1 <0>         0.1079
     23 C16        -1.1519   -5.2199    0.1462 C.2       1 <0>        -0.2431
     24 C17        -1.5464   -6.5156    0.2849 C.2       1 <0>         0.0890
     25 N4         -2.8314   -6.7979    0.4012 N.2       1 <0>        -0.4892
     26 C18        -3.7467   -5.8460    0.3857 C.2       1 <0>         0.3458
     27 S2         -2.7329   -4.3859    0.1960 S.3       1 <0>         0.0218
     28 N5         -5.1286   -5.9511    0.4932 N.pl3     1 <0>        -0.5967
     29 C19        -5.7143   -7.1859    0.7520 C.ar      1 <0>         0.3827
     30 C20        -7.1002   -7.3060    0.7473 C.ar      1 <0>        -0.1954
     31 C21        -7.6699   -8.5398    1.0058 C.ar      1 <0>        -0.0337
     32 C22        -6.8315   -9.6165    1.2613 C.ar      1 <0>        -0.1739
     33 C23        -5.4630   -9.4261    1.2501 C.ar      1 <0>         0.1634
     34 N6         -4.9473   -8.2377    0.9952 N.ar      1 <0>        -0.4589
     35 Br1        -4.3141  -10.8874    1.5971 Br        1 <0>         0.0011
     36 H2          0.5432    1.9415   -0.0678 H         1 <0>         0.0775
     37 H3         -1.0577    1.7080   -0.8100 H         1 <0>         0.0764
     38 H4         -0.8918    1.7217    0.9622 H         1 <0>         0.0924
     39 H5         -0.5688   -0.2520   -2.0762 H         1 <0>         0.1400
     40 H6         -0.2099   -2.6836   -2.1014 H         1 <0>         0.1398
     41 H7          0.5919   -2.6223    2.0992 H         1 <0>         0.1391
     42 H8          2.6376   -1.7281    3.5110 H         1 <0>         0.0811
     43 H9          2.2444   -1.4067    1.8018 H         1 <0>         0.1032
     44 H10         4.6358   -0.8091    2.4954 H         1 <0>         0.1072
     45 H11         3.7118    0.5201    1.7480 H         1 <0>         0.0740
     46 H12         3.1401    2.0309    5.2057 H         1 <0>         0.1048
     47 H13         2.7469    2.3523    3.4966 H         1 <0>         0.0787
     48 H14         0.7526    1.4400    4.5067 H         1 <0>         0.1104
     49 H15         1.6736    0.1114    5.2589 H         1 <0>         0.0778
     50 H16         4.9519   -0.2326    7.1259 H         1 <0>         0.0628
     51 H17         4.6659    1.3667    7.8531 H         1 <0>         0.0808
     52 H18         3.4814    0.6821    6.7145 H         1 <0>         0.0651
     53 H19         7.1122    0.6229    6.2757 H         1 <0>         0.3524
     54 H20         7.2071    2.0247    5.3858 H         1 <0>         0.3468
     55 H21        -0.8128   -7.3080    0.2995 H         1 <0>         0.1716
     56 H22        -5.6846   -5.1632    0.3877 H         1 <0>         0.4388
     57 H23        -7.7232   -6.4473    0.5450 H         1 <0>         0.1450
     58 H24        -8.7429   -8.6626    1.0091 H         1 <0>         0.1514
     59 H25        -7.2447  -10.5929    1.4670 H         1 <0>         0.1481
@<TRIPOS>BOND
     1    1    2 1
     2    1   36 1
     3    1   37 1
     4    1   38 1
     5    2    7 ar
     6    2    3 ar
     7    3    4 ar
     8    3   39 1
     9    4    5 ar
    10    4   40 1
    11    5    6 ar
    12    5   22 1
    13    6    7 ar
    14    6   41 1
    15    7    8 1
    16    8    9 2
    17    8   10 am
    18   10   15 1
    19   10   11 1
    20   11   12 1
    21   11   42 1
    22   11   43 1
    23   12   13 1
    24   12   44 1
    25   12   45 1
    26   13   14 1
    27   13   16 am
    28   14   15 1
    29   14   46 1
    30   14   47 1
    31   15   48 1
    32   15   49 1
    33   16   17 2
    34   16   18 1
    35   18   19 1
    36   18   20 1
    37   18   21 1
    38   20   50 1
    39   20   51 1
    40   20   52 1
    41   21   53 1
    42   21   54 1
    43   22   23 1
    44   23   27 1
    45   23   24 2
    46   24   25 1
    47   24   55 1
    48   25   26 2
    49   26   27 1
    50   26   28 1
    51   28   29 1
    52   28   56 1
    53   29   34 ar
    54   29   30 ar
    55   30   31 ar
    56   30   57 1
    57   31   32 ar
    58   31   58 1
    59   32   33 ar
    60   32   59 1
    61   33   34 ar
    62   33   35 1
@<TRIPOS>MOLECULE
CHEMBL566621
   46    49     0     0     0
SMALL
USER_CHARGES

@<TRIPOS>ATOM
      1 C1          1.0520    1.2202    3.5168 C.ar      1 <0>        -0.1339
      2 C2          1.5232   -0.0011    3.9623 C.ar      1 <0>        -0.0997
      3 C3          2.5311   -0.6470    3.2736 C.ar      1 <0>        -0.1211
      4 C4          3.0710   -0.0689    2.1322 C.ar      1 <0>         0.1446
      5 C5          2.5953    1.1575    1.6871 C.ar      1 <0>        -0.1461
      6 C6          1.5875    1.7985    2.3806 C.ar      1 <0>        -0.1008
      7 N1          4.0926   -0.7205    1.4324 N.am      1 <0>        -0.6758
      8 C7          4.1220   -2.0670    1.3818 C.2       1 <0>         0.5108
      9 O1          3.2136   -2.7119    1.8613 O.2       1 <0>        -0.4705
     10 C8          5.2837   -2.7713    0.7294 C.3       1 <0>        -0.1632
     11 C9          5.0744   -4.2618    0.8054 C.2       1 <0>         0.5139
     12 O2          4.0798   -4.7082    1.3370 O.2       1 <0>        -0.4633
     13 N2          5.9924   -5.0987    0.2826 N.am      1 <0>        -0.6756
     14 C10         5.7510   -6.4784    0.2616 C.ar      1 <0>         0.1916
     15 C11         4.4569   -6.9545    0.0976 C.ar      1 <0>        -0.1184
     16 C12         4.2183   -8.3146    0.0768 C.ar      1 <0>        -0.0650
     17 C13         5.2710   -9.2063    0.2194 C.ar      1 <0>         0.0225
     18 C14         6.5663   -8.7316    0.3836 C.ar      1 <0>         0.1209
     19 C15         6.8063   -7.3700    0.3992 C.ar      1 <0>        -0.1730
     20 F1          7.5917   -9.6002    0.5230 F         1 <0>        -0.1216
     21 O3          5.0351  -10.5455    0.1988 O.3       1 <0>        -0.2357
     22 C16         4.9180  -11.1903    1.3876 C.ar      1 <0>         0.2094
     23 C17         4.9246  -10.4869    2.5899 C.ar      1 <0>        -0.2356
     24 C18         4.8017  -11.1991    3.7711 C.ar      1 <0>         0.1564
     25 N3          4.6805  -12.5025    3.7934 N.ar      1 <0>        -0.4776
     26 C19         4.6658  -13.2520    2.6694 C.ar      1 <0>         0.1518
     27 C20         4.7826  -12.5668    1.4427 C.ar      1 <0>        -0.2032
     28 S1          4.7148  -13.8590    0.2304 S.3       1 <0>         0.0742
     29 C21         4.5300  -15.2536    1.3257 C.2       1 <0>        -0.1264
     30 C22         4.5393  -14.6950    2.5470 C.2       1 <0>        -0.1404
     31 H1          0.2609    1.7214    4.0548 H         1 <0>         0.1242
     32 H2          1.1028   -0.4501    4.8501 H         1 <0>         0.1264
     33 H3          2.8992   -1.6005    3.6225 H         1 <0>         0.1340
     34 H4          3.0134    1.6098    0.8000 H         1 <0>         0.1253
     35 H5          1.2171    2.7523    2.0349 H         1 <0>         0.1269
     36 H6          4.7796   -0.2032    0.9837 H         1 <0>         0.4107
     37 H7          5.3530   -2.4669   -0.3150 H         1 <0>         0.1324
     38 H8          6.2059   -2.5070    1.2468 H         1 <0>         0.1323
     39 H9          6.8203   -4.7456   -0.0792 H         1 <0>         0.4160
     40 H10         3.6366   -6.2608   -0.0135 H         1 <0>         0.1534
     41 H11         3.2115   -8.6841   -0.0501 H         1 <0>         0.1497
     42 H12         7.8135   -7.0003    0.5223 H         1 <0>         0.1504
     43 H13         5.0236   -9.4115    2.6007 H         1 <0>         0.1488
     44 H14         4.8064  -10.6603    4.7071 H         1 <0>         0.1675
     45 H15         4.4413  -16.2988    1.0688 H         1 <0>         0.2011
     46 H16         4.4402  -15.3105    3.4289 H         1 <0>         0.1519
@<TRIPOS>BOND
     1    1    6 ar
     2    1    2 ar
     3    1   31 1
     4    2    3 ar
     5    2   32 1
     6    3    4 ar
     7    3   33 1
     8    4    5 ar
     9    4    7 1
    10    5    6 ar
    11    5   34 1
    12    6   35 1
    13    7    8 am
    14    7   36 1
    15    8    9 2
    16    8   10 1
    17   10   11 1
    18   10   37 1
    19   10   38 1
    20   11   12 2
    21   11   13 am
    22   13   14 1
    23   13   39 1
    24   14   19 ar
    25   14   15 ar
    26   15   16 ar
    27   15   40 1
    28   16   17 ar
    29   16   41 1
    30   17   18 ar
    31   17   21 1
    32   18   19 ar
    33   18   20 1
    34   19   42 1
    35   21   22 1
    36   22   27 ar
    37   22   23 ar
    38   23   24 ar
    39   23   43 1
    40   24   25 ar
    41   24   44 1
    42   25   26 ar
    43   26   30 1
    44   26   27 ar
    45   27   28 1
    46   28   29 1
    47   29   30 2
    48   29   45 1
    49   30   46 1
@<TRIPOS>MOLECULE
CHEMBL472552
   53    56     0     0     0
SMALL
USER_CHARGES

@<TRIPOS>ATOM
      1 C1         -1.4910    0.0716   -1.7262 C.3       1 <0>         0.0229
      2 O1         -0.6645   -0.5905   -0.7667 O.3       1 <0>        -0.3017
      3 C2          0.6807   -0.5002   -0.9437 C.ar      1 <0>         0.1134
      4 C3          1.1772    0.2063   -2.0008 C.ar      1 <0>        -0.1540
      5 C4          2.5651    0.2998   -2.1830 C.ar      1 <0>        -0.1062
      6 C5          3.1153    1.0229   -3.2651 C.ar      1 <0>         0.1803
      7 C6          4.4936    1.0709   -3.3794 C.ar      1 <0>        -0.2658
      8 C7          5.2855    0.4182   -2.4432 C.ar      1 <0>         0.1657
      9 N1          4.7640   -0.2511   -1.4419 N.ar      1 <0>        -0.4929
     10 C8          3.4396   -0.3387   -1.2702 C.ar      1 <0>         0.1717
     11 C9          2.8983   -1.0588   -0.1924 C.ar      1 <0>        -0.1796
     12 C10         1.5441   -1.1290   -0.0352 C.ar      1 <0>         0.1515
     13 O2          1.0258   -1.8219    1.0125 O.3       1 <0>        -0.2998
     14 C11         1.9551   -2.4408    1.9043 C.3       1 <0>         0.0209
     15 O3          2.3174    1.6500   -4.1643 O.3       1 <0>        -0.2374
     16 C12         2.9110    2.4004   -5.1303 C.ar      1 <0>        -0.0077
     17 C13         2.9344    3.7893   -5.0290 C.ar      1 <0>        -0.0408
     18 C14         3.5495    4.5130   -6.0345 C.ar      1 <0>        -0.1887
     19 C15         4.1200    3.8346   -7.1055 C.ar      1 <0>         0.3814
     20 N2          4.0788    2.5137   -7.1685 N.ar      1 <0>        -0.4562
     21 C16         3.5050    1.7924   -6.2245 C.ar      1 <0>         0.1388
     22 N3          4.7428    4.5550   -8.1258 N.am      1 <0>        -0.6628
     23 C17         5.2015    3.9149   -9.2196 C.2       1 <0>         0.6839
     24 O4          5.1625    2.7014   -9.2746 O.2       1 <0>        -0.4565
     25 N4          5.7034    4.6206  -10.2524 N.am      1 <0>        -0.6864
     26 C18         6.1621    3.9805  -11.3462 C.2       1 <0>         0.5660
     27 O5          6.1231    2.7672  -11.4012 O.2       1 <0>        -0.4564
     28 C19         6.7123    4.7541  -12.4785 C.ar      1 <0>        -0.1405
     29 C20         6.7639    6.1479  -12.4163 C.ar      1 <0>        -0.0857
     30 C21         7.2788    6.8640  -13.4770 C.ar      1 <0>        -0.1257
     31 C22         7.7436    6.2039  -14.6007 C.ar      1 <0>        -0.0867
     32 C23         7.6954    4.8228  -14.6690 C.ar      1 <0>        -0.1243
     33 C24         7.1883    4.0942  -13.6131 C.ar      1 <0>        -0.0537
     34 H1         -1.2664    1.1382   -1.7247 H         1 <0>         0.0577
     35 H2         -1.2977   -0.3390   -2.7172 H         1 <0>         0.0585
     36 H3         -2.5393   -0.0793   -1.4684 H         1 <0>         0.1048
     37 H4          0.5050    0.6906   -2.6936 H         1 <0>         0.1491
     38 H5          4.9516    1.6133   -4.1933 H         1 <0>         0.1382
     39 H6          6.3600    0.4623   -2.5422 H         1 <0>         0.1627
     40 H7          3.5516   -1.5516    0.5123 H         1 <0>         0.1541
     41 H8          2.5659   -3.1561    1.3536 H         1 <0>         0.0609
     42 H9          2.5974   -1.6788    2.3460 H         1 <0>         0.0607
     43 H10         1.4110   -2.9595    2.6936 H         1 <0>         0.1057
     44 H11         2.4825    4.2896   -4.1852 H         1 <0>         0.1516
     45 H12         3.5858    5.5914   -5.9883 H         1 <0>         0.1493
     46 H13         3.4947    0.7156   -6.3076 H         1 <0>         0.1685
     47 H14         4.8455    5.5164   -8.0477 H         1 <0>         0.4183
     48 H15         5.7345    5.5891  -10.2085 H         1 <0>         0.4089
     49 H16         6.4011    6.6643  -11.5398 H         1 <0>         0.1257
     50 H17         7.3189    7.9422  -13.4303 H         1 <0>         0.1328
     51 H18         8.1454    6.7694  -15.4285 H         1 <0>         0.1312
     52 H19         8.0596    4.3138  -15.5492 H         1 <0>         0.1345
     53 H20         7.1558    3.0159  -13.6656 H         1 <0>         0.1397
@<TRIPOS>BOND
     1    1    2 1
     2    1   34 1
     3    1   35 1
     4    1   36 1
     5    2    3 1
     6    3   12 ar
     7    3    4 ar
     8    4    5 ar
     9    4   37 1
    10    5   10 ar
    11    5    6 ar
    12    6    7 ar
    13    6   15 1
    14    7    8 ar
    15    7   38 1
    16    8    9 ar
    17    8   39 1
    18    9   10 ar
    19   10   11 ar
    20   11   12 ar
    21   11   40 1
    22   12   13 1
    23   13   14 1
    24   14   41 1
    25   14   42 1
    26   14   43 1
    27   15   16 1
    28   16   21 ar
    29   16   17 ar
    30   17   18 ar
    31   17   44 1
    32   18   19 ar
    33   18   45 1
    34   19   20 ar
    35   19   22 1
    36   20   21 ar
    37   21   46 1
    38   22   23 am
    39   22   47 1
    40   23   24 2
    41   23   25 am
    42   25   26 am
    43   25   48 1
    44   26   27 2
    45   26   28 1
    46   28   33 ar
    47   28   29 ar
    48   29   30 ar
    49   29   49 1
    50   30   31 ar
    51   30   50 1
    52   31   32 ar
    53   31   51 1
    54   32   33 ar
    55   32   52 1
    56   33   53 1
@<TRIPOS>MOLECULE
CHEMBL472552__1
   54    57     0     0     0
SMALL
USER_CHARGES

@<TRIPOS>ATOM
      1 C1         -1.4910    0.0716   -1.7262 C.3       1 <0>         0.0148
      2 O1         -0.6645   -0.5905   -0.7667 O.3       1 <0>        -0.2865
      3 C2          0.6807   -0.5002   -0.9437 C.ar      1 <0>         0.1349
      4 C3          1.1772    0.2063   -2.0008 C.ar      1 <0>        -0.1362
      5 C4          2.5651    0.2998   -2.1830 C.ar      1 <0>        -0.0889
      6 C5          3.1153    1.0229   -3.2651 C.ar      1 <0>         0.2791
      7 C6          4.4936    1.0709   -3.3794 C.ar      1 <0>        -0.2646
      8 C7          5.2855    0.4182   -2.4432 C.ar      1 <0>         0.2277
      9 N1          4.7640   -0.2511   -1.4419 N.ar      1 <0>        -0.4812
     10 C8          3.4396   -0.3387   -1.2702 C.ar      1 <0>         0.1820
     11 C9          2.8983   -1.0588   -0.1924 C.ar      1 <0>        -0.2357
     12 C10         1.5441   -1.1290   -0.0352 C.ar      1 <0>         0.2165
     13 O2          1.0258   -1.8219    1.0125 O.3       1 <0>        -0.2774
     14 C11         1.9551   -2.4408    1.9043 C.3       1 <0>         0.0116
     15 O3          2.3174    1.6500   -4.1643 O.3       1 <0>        -0.2014
     16 C12         2.9110    2.4004   -5.1303 C.ar      1 <0>        -0.0555
     17 C13         2.9344    3.7893   -5.0290 C.ar      1 <0>        -0.0241
     18 C14         3.5495    4.5130   -6.0345 C.ar      1 <0>        -0.1888
     19 C15         4.1200    3.8346   -7.1055 C.ar      1 <0>         0.4057
     20 N2          4.0788    2.5137   -7.1685 N.ar      1 <0>        -0.4547
     21 C16         3.5050    1.7924   -6.2245 C.ar      1 <0>         0.1532
     22 N3          4.7428    4.5550   -8.1258 N.am      1 <0>        -0.6616
     23 C17         5.2015    3.9149   -9.2196 C.2       1 <0>         0.6859
     24 O4          5.1625    2.7014   -9.2746 O.2       1 <0>        -0.4559
     25 N4          5.7034    4.6206  -10.2524 N.am      1 <0>        -0.6855
     26 C18         6.1621    3.9805  -11.3462 C.2       1 <0>         0.5684
     27 O5          6.1231    2.7672  -11.4012 O.2       1 <0>        -0.4559
     28 C19         6.7123    4.7541  -12.4785 C.ar      1 <0>        -0.1451
     29 C20         6.7639    6.1479  -12.4163 C.ar      1 <0>        -0.0857
     30 C21         7.2788    6.8640  -13.4770 C.ar      1 <0>        -0.1249
     31 C22         7.7436    6.2039  -14.6007 C.ar      1 <0>        -0.0830
     32 C23         7.6954    4.8228  -14.6690 C.ar      1 <0>        -0.1231
     33 C24         7.1883    4.0942  -13.6131 C.ar      1 <0>        -0.0525
     34 H1         -1.2664    1.1382   -1.7247 H         1 <0>         0.0669
     35 H2         -1.2977   -0.3390   -2.7172 H         1 <0>         0.0676
     36 H3         -2.5393   -0.0793   -1.4684 H         1 <0>         0.1185
     37 H4          0.5050    0.6906   -2.6936 H         1 <0>         0.1730
     38 H5          4.9516    1.6133   -4.1933 H         1 <0>         0.1810
     39 H6          6.3600    0.4623   -2.5422 H         1 <0>         0.2121
     40 H7          3.5516   -1.5516    0.5123 H         1 <0>         0.1713
     41 H8          1.4110   -2.9595    2.6936 H         1 <0>         0.1216
     42 H9          2.5659   -3.1561    1.3536 H         1 <0>         0.0695
     43 H10         2.5974   -1.6788    2.3460 H         1 <0>         0.0693
     44 H11         2.4825    4.2896   -4.1852 H         1 <0>         0.1574
     45 H12         3.5858    5.5914   -5.9883 H         1 <0>         0.1579
     46 H13         3.4947    0.7156   -6.3076 H         1 <0>         0.1724
     47 H14         4.8455    5.5164   -8.0477 H         1 <0>         0.4227
     48 H15         5.7345    5.5891  -10.2085 H         1 <0>         0.4112
     49 H16         6.4011    6.6643  -11.5398 H         1 <0>         0.1248
     50 H17         7.3189    7.9422  -13.4303 H         1 <0>         0.1341
     51 H18         8.1454    6.7694  -15.4285 H         1 <0>         0.1332
     52 H19         8.0596    4.3138  -15.5492 H         1 <0>         0.1362
     53 H20         7.1558    3.0159  -13.6656 H         1 <0>         0.1397
     54 H21         5.3531   -0.6931   -0.8107 H         1 <0>         0.4477
@<TRIPOS>BOND
     1    1    2 1
     2    1   34 1
     3    1   35 1
     4    1   36 1
     5    2    3 1
     6    3   12 ar
     7    3    4 ar
     8    4    5 ar
     9    4   37 1
    10    5   10 ar
    11    5    6 ar
    12    6    7 ar
    13    6   15 1
    14    7    8 ar
    15    7   38 1
    16    8    9 ar
    17    8   39 1
    18    9   10 ar
    19    9   54 1
    20   10   11 ar
    21   11   12 ar
    22   11   40 1
    23   12   13 1
    24   13   14 1
    25   14   41 1
    26   14   42 1
    27   14   43 1
    28   15   16 1
    29   16   21 ar
    30   16   17 ar
    31   17   18 ar
    32   17   44 1
    33   18   19 ar
    34   18   45 1
    35   19   20 ar
    36   19   22 1
    37   20   21 ar
    38   21   46 1
    39   22   23 am
    40   22   47 1
    41   23   24 2
    42   23   25 am
    43   25   26 am
    44   25   48 1
    45   26   27 2
    46   26   28 1
    47   28   33 ar
    48   28   29 ar
    49   29   30 ar
    50   29   49 1
    51   30   31 ar
    52   30   50 1
    53   31   32 ar
    54   31   51 1
    55   32   33 ar
    56   32   52 1
    57   33   53 1
@<TRIPOS>MOLECULE
CHEMBL549980
   48    52     0     0     0
SMALL
USER_CHARGES

@<TRIPOS>ATOM
      1 C1         -0.0267    1.5166   -0.0073 C.3       1 <0>        -0.1756
      2 C2         -0.0061    0.0097    0.0020 C.2       1 <0>         0.5140
      3 O1          1.0524   -0.5823    0.0028 O.2       1 <0>        -0.5416
      4 N1         -1.1640   -0.6800    0.0093 N.am      1 <0>        -0.6161
      5 C3         -2.4541    0.0241    0.0023 C.3       1 <0>         0.0895
      6 C4         -3.2813   -0.4807   -1.1865 C.3       1 <0>         0.1047
      7 N2         -3.2765   -1.9502   -1.1718 N.pl3     1 <0>        -0.6188
      8 C5         -1.9865   -2.6543   -1.1647 C.3       1 <0>         0.1041
      9 C6         -1.1592   -2.1496    0.0184 C.3       1 <0>         0.0941
     10 C7         -4.4782   -2.6660   -1.1642 C.ar      1 <0>         0.1983
     11 C8         -4.4680   -4.0514   -1.2652 C.ar      1 <0>        -0.1765
     12 C9         -5.6870   -4.7213   -1.2529 C.ar      1 <0>         0.1007
     13 C10        -6.8755   -3.9751   -1.1394 C.ar      1 <0>         0.0649
     14 C11        -7.9655   -4.9543   -1.1565 C.2       1 <0>        -0.1238
     15 C12        -7.4037   -6.1684   -1.2728 C.2       1 <0>         0.0500
     16 N3         -6.0421   -6.0488   -1.3319 N.pl3     1 <0>        -0.8228
     17 S1         -4.9807   -7.3115   -1.4777 S.o2      1 <0>         2.6801
     18 O2         -3.9826   -7.1198   -0.4846 O.2       1 <0>        -0.9175
     19 O3         -5.7645   -8.4945   -1.5516 O.2       1 <0>        -0.9070
     20 C13        -4.1787   -7.1404   -3.0372 C.ar      1 <0>        -0.6656
     21 C14        -2.8478   -6.9044   -3.0952 C.ar      1 <0>         0.0867
     22 C15        -2.1747   -6.7625   -4.3149 C.ar      1 <0>        -0.1177
     23 C16        -2.8189   -6.8539   -5.5011 C.ar      1 <0>        -0.0043
     24 C17        -4.2159   -7.1006   -5.5239 C.ar      1 <0>         0.0725
     25 C18        -4.9242   -7.2554   -4.2389 C.ar      1 <0>         0.1320
     26 N4         -6.1920   -7.4795   -4.4962 N.2       1 <0>        -0.2502
     27 O4         -6.3575   -7.4859   -5.9037 O.3       1 <0>         0.0831
     28 N5         -5.0922   -7.2376   -6.4919 N.2       1 <0>        -0.2331
     29 N6         -6.8344   -2.6495   -1.0456 N.ar      1 <0>        -0.4032
     30 C19        -5.6936   -1.9952   -1.0495 C.ar      1 <0>         0.0453
     31 H1          0.9959    1.8938   -0.0123 H         1 <0>         0.0943
     32 H2         -0.5478    1.8674   -0.8980 H         1 <0>         0.0895
     33 H3         -0.5430    1.8783    0.8819 H         1 <0>         0.0900
     34 H4         -2.9868   -0.1791    0.9312 H         1 <0>         0.0794
     35 H5         -2.2852    1.0962   -0.0985 H         1 <0>         0.1017
     36 H6         -4.3053   -0.1173   -1.1002 H         1 <0>         0.1005
     37 H7         -2.8407   -0.1227   -2.1170 H         1 <0>         0.0753
     38 H8         -2.1554   -3.7264   -1.0640 H         1 <0>         0.0949
     39 H9         -1.4537   -2.4510   -2.0937 H         1 <0>         0.0732
     40 H10        -0.1354   -2.5126   -0.0717 H         1 <0>         0.1060
     41 H11        -1.5977   -2.5111    0.9485 H         1 <0>         0.0751
     42 H12        -3.5382   -4.5941   -1.3513 H         1 <0>         0.1364
     43 H13        -9.0218   -4.7399   -1.0883 H         1 <0>         0.1668
     44 H14        -7.9464   -7.1013   -1.3134 H         1 <0>         0.1988
     45 H15        -2.2888   -6.8226   -2.1748 H         1 <0>         0.1726
     46 H16        -1.1112   -6.5745   -4.3086 H         1 <0>         0.1686
     47 H17        -2.2727   -6.7393   -6.4257 H         1 <0>         0.1665
     48 H18        -5.6994   -0.9184   -0.9666 H         1 <0>         0.1641
@<TRIPOS>BOND
     1    1    2 1
     2    1   31 1
     3    1   32 1
     4    1   33 1
     5    2    3 2
     6    2    4 am
     7    4    9 1
     8    4    5 1
     9    5    6 1
    10    5   34 1
    11    5   35 1
    12    6    7 1
    13    6   36 1
    14    6   37 1
    15    7    8 1
    16    7   10 1
    17    8    9 1
    18    8   38 1
    19    8   39 1
    20    9   40 1
    21    9   41 1
    22   10   30 ar
    23   10   11 ar
    24   11   12 ar
    25   11   42 1
    26   12   16 1
    27   12   13 ar
    28   13   14 1
    29   13   29 ar
    30   14   15 2
    31   14   43 1
    32   15   16 1
    33   15   44 1
    34   16   17 1
    35   17   18 2
    36   17   19 2
    37   17   20 1
    38   20   25 ar
    39   20   21 ar
    40   21   22 ar
    41   21   45 1
    42   22   23 ar
    43   22   46 1
    44   23   24 ar
    45   23   47 1
    46   24   28 2
    47   24   25 ar
    48   25   26 2
    49   26   27 1
    50   27   28 1
    51   29   30 ar
    52   30   48 1
@<TRIPOS>MOLECULE
CHEMBL550158
   58    62     0     0     0
SMALL
USER_CHARGES

@<TRIPOS>ATOM
      1 C1         -0.3551    0.2777   -0.3533 C.3       1 <0>        -0.1861
      2 C2         -0.2800   -1.2370   -0.5553 C.3       1 <0>         0.1354
      3 C3          0.4192   -1.8776    0.6454 C.3       1 <0>        -0.1875
      4 C4         -1.6947   -1.8050   -0.6845 C.3       1 <0>        -0.1421
      5 O1          0.4586   -1.5229   -1.7448 O.3       1 <0>        -0.3555
      6 C5          1.7318   -1.0879   -1.7932 C.2       1 <0>         0.6561
      7 O2          2.2031   -0.4821   -0.8511 O.2       1 <0>        -0.5518
      8 N1          2.4837   -1.3243   -2.8864 N.am      1 <0>        -0.6022
      9 C6          1.9251   -2.0503   -4.0357 C.3       1 <0>         0.0954
     10 C7          2.0963   -1.1865   -5.2913 C.3       1 <0>         0.0945
     11 N2          3.4893   -0.7225   -5.3558 N.pl3     1 <0>        -0.5939
     12 C8          4.0479    0.0035   -4.2065 C.3       1 <0>         0.0926
     13 C9          3.8749   -0.8555   -2.9531 C.3       1 <0>         0.1111
     14 C10         4.2695   -0.9679   -6.4904 C.ar      1 <0>         0.2276
     15 C11         5.5454   -0.4279   -6.5923 C.ar      1 <0>        -0.0990
     16 C12         6.2852   -0.6990   -7.7386 C.ar      1 <0>         0.1453
     17 C13         5.7170   -1.5042   -8.7440 C.ar      1 <0>         0.0855
     18 C14         6.7288   -1.5992   -9.7996 C.2       1 <0>        -0.1569
     19 C15         7.7912   -0.8854   -9.3935 C.2       1 <0>         0.1225
     20 N3          7.5442   -0.3399   -8.1635 N.pl3     1 <0>        -0.8235
     21 S1          8.6009    0.6109   -7.3139 S.o2      1 <0>         2.6926
     22 O3          8.6285    0.1021   -5.9874 O.2       1 <0>        -0.9023
     23 O4          9.7724    0.7274   -8.1096 O.2       1 <0>        -0.8693
     24 C16         7.8931    2.2218   -7.2207 C.2       1 <0>        -0.6066
     25 C17         7.8805    3.1404   -8.2019 C.2       1 <0>         0.2280
     26 N4          7.2516    4.2358   -7.7482 N.2       1 <0>        -0.4276
     27 C18         6.8738    4.0279   -6.5195 C.2       1 <0>         0.2315
     28 N5          7.2403    2.7705   -6.1186 N.pl3     1 <0>        -0.3780
     29 C19         6.9016    2.4010   -4.8352 C.2       1 <0>        -0.0111
     30 C20         6.2448    3.2394   -4.0348 C.2       1 <0>        -0.1480
     31 S2          6.0586    4.6763   -5.0792 S.3       1 <0>         0.2242
     32 Cl1         8.5622    2.9436   -9.7863 Cl        1 <0>         0.0582
     33 N6          4.4910   -1.9986   -8.6010 N.ar      1 <0>        -0.3764
     34 C21         3.7752   -1.7603   -7.5238 C.ar      1 <0>         0.0707
     35 H1          0.6528    0.6824   -0.2613 H         1 <0>         0.0856
     36 H2         -0.8531    0.7341   -1.2087 H         1 <0>         0.0595
     37 H3         -0.9184    0.4958    0.5541 H         1 <0>         0.0751
     38 H4         -0.1441   -1.6596    1.5527 H         1 <0>         0.0751
     39 H5          0.4727   -2.9567    0.5015 H         1 <0>         0.0607
     40 H6          1.4271   -1.4729    0.7374 H         1 <0>         0.0860
     41 H7         -2.1928   -1.3487   -1.5399 H         1 <0>         0.0673
     42 H8         -1.6412   -2.8842   -0.8284 H         1 <0>         0.0680
     43 H9         -2.2580   -1.5870    0.2229 H         1 <0>         0.0853
     44 H10         2.4556   -2.9936   -4.1655 H         1 <0>         0.0826
     45 H11         0.8658   -2.2438   -3.8664 H         1 <0>         0.1173
     46 H12         1.8666   -1.7789   -6.1770 H         1 <0>         0.1003
     47 H13         1.4268   -0.3279   -5.2387 H         1 <0>         0.0973
     48 H14         5.1071    0.1970   -4.3758 H         1 <0>         0.0971
     49 H15         3.5174    0.9468   -4.0767 H         1 <0>         0.0967
     50 H16         4.1031   -0.2601   -2.0691 H         1 <0>         0.1220
     51 H17         4.5475   -1.7117   -3.0041 H         1 <0>         0.0846
     52 H18         5.9519    0.1865   -5.8026 H         1 <0>         0.1638
     53 H19         6.6373   -2.1413  -10.7293 H         1 <0>         0.1949
     54 H20         8.7055   -0.7607   -9.9547 H         1 <0>         0.2257
     55 H21         7.1716    1.4198   -4.4737 H         1 <0>         0.1938
     56 H22         5.9156    3.0908   -3.0170 H         1 <0>         0.2367
     57 H23         2.7848   -2.1830   -7.4409 H         1 <0>         0.2154
     58 H24         4.1177   -2.5512   -9.3054 H         1 <0>         0.4561
@<TRIPOS>BOND
     1    1    2 1
     2    1   35 1
     3    1   36 1
     4    1   37 1
     5    2    3 1
     6    2    4 1
     7    2    5 1
     8    3   38 1
     9    3   39 1
    10    3   40 1
    11    4   41 1
    12    4   42 1
    13    4   43 1
    14    5    6 1
    15    6    7 2
    16    6    8 am
    17    8   13 1
    18    8    9 1
    19    9   10 1
    20    9   44 1
    21    9   45 1
    22   10   11 1
    23   10   46 1
    24   10   47 1
    25   11   12 1
    26   11   14 1
    27   12   13 1
    28   12   48 1
    29   12   49 1
    30   13   50 1
    31   13   51 1
    32   14   34 ar
    33   14   15 ar
    34   15   16 ar
    35   15   52 1
    36   16   20 1
    37   16   17 ar
    38   17   18 1
    39   17   33 ar
    40   18   19 2
    41   18   53 1
    42   19   20 1
    43   19   54 1
    44   20   21 1
    45   21   22 2
    46   21   23 2
    47   21   24 1
    48   24   28 1
    49   24   25 2
    50   25   26 1
    51   25   32 1
    52   26   27 2
    53   27   31 1
    54   27   28 1
    55   28   29 1
    56   29   30 2
    57   29   55 1
    58   30   31 1
    59   30   56 1
    60   33   34 ar
    61   33   58 1
    62   34   57 1
@<TRIPOS>MOLECULE
CHEMBL550158__1
   57    61     0     0     0
SMALL
USER_CHARGES

@<TRIPOS>ATOM
      1 C1         -0.3551    0.2777   -0.3533 C.3       1 <0>        -0.1853
      2 C2         -0.2800   -1.2370   -0.5553 C.3       1 <0>         0.1347
      3 C3          0.4192   -1.8776    0.6454 C.3       1 <0>        -0.1862
      4 C4         -1.6947   -1.8050   -0.6845 C.3       1 <0>        -0.1410
      5 O1          0.4586   -1.5229   -1.7448 O.3       1 <0>        -0.3558
      6 C5          1.7318   -1.0879   -1.7932 C.2       1 <0>         0.6556
      7 O2          2.2031   -0.4821   -0.8511 O.2       1 <0>        -0.5629
      8 N1          2.4837   -1.3243   -2.8864 N.am      1 <0>        -0.5958
      9 C6          1.9250   -2.0503   -4.0357 C.3       1 <0>         0.0953
     10 C7          2.0963   -1.1865   -5.2913 C.3       1 <0>         0.1057
     11 N2          3.4893   -0.7225   -5.3558 N.pl3     1 <0>        -0.6182
     12 C8          4.0479    0.0035   -4.2065 C.3       1 <0>         0.1025
     13 C9          3.8749   -0.8555   -2.9531 C.3       1 <0>         0.1117
     14 C10         4.2695   -0.9679   -6.4904 C.ar      1 <0>         0.2001
     15 C11         5.5454   -0.4279   -6.5923 C.ar      1 <0>        -0.1775
     16 C12         6.2852   -0.6990   -7.7386 C.ar      1 <0>         0.1021
     17 C13         5.7170   -1.5042   -8.7440 C.ar      1 <0>         0.0652
     18 C14         6.7288   -1.5992   -9.7996 C.2       1 <0>        -0.1182
     19 C15         7.7912   -0.8854   -9.3935 C.2       1 <0>         0.0425
     20 N3          7.5442   -0.3399   -8.1635 N.pl3     1 <0>        -0.8230
     21 S1          8.6009    0.6109   -7.3139 S.o2      1 <0>         2.7044
     22 O3          8.6285    0.1021   -5.9874 O.2       1 <0>        -0.9206
     23 O4          9.7724    0.7274   -8.1096 O.2       1 <0>        -0.8967
     24 C16         7.8931    2.2218   -7.2207 C.2       1 <0>        -0.5890
     25 C17         7.8805    3.1404   -8.2019 C.2       1 <0>         0.2200
     26 N4          7.2516    4.2358   -7.7482 N.2       1 <0>        -0.4333
     27 C18         6.8738    4.0279   -6.5195 C.2       1 <0>         0.2268
     28 N5          7.2403    2.7705   -6.1186 N.pl3     1 <0>        -0.3747
     29 C19         6.9016    2.4010   -4.8352 C.2       1 <0>         0.0074
     30 C20         6.2448    3.2394   -4.0348 C.2       1 <0>        -0.1571
     31 S2          6.0586    4.6763   -5.0792 S.3       1 <0>         0.1974
     32 Cl1         8.5622    2.9436   -9.7863 Cl        1 <0>         0.0531
     33 N6          4.4910   -1.9986   -8.6010 N.ar      1 <0>        -0.4011
     34 C21         3.7752   -1.7603   -7.5238 C.ar      1 <0>         0.0474
     35 H1          0.6528    0.6824   -0.2613 H         1 <0>         0.0866
     36 H2         -0.8531    0.7341   -1.2087 H         1 <0>         0.0590
     37 H3         -0.9184    0.4958    0.5541 H         1 <0>         0.0711
     38 H4         -0.1441   -1.6596    1.5527 H         1 <0>         0.0711
     39 H5          0.4727   -2.9567    0.5015 H         1 <0>         0.0594
     40 H6          1.4271   -1.4729    0.7374 H         1 <0>         0.0868
     41 H7         -2.1928   -1.3487   -1.5399 H         1 <0>         0.0669
     42 H8         -1.6412   -2.8842   -0.8284 H         1 <0>         0.0671
     43 H9         -2.2580   -1.5870    0.2229 H         1 <0>         0.0817
     44 H10         2.4556   -2.9936   -4.1655 H         1 <0>         0.0795
     45 H11         0.8658   -2.2438   -3.8664 H         1 <0>         0.1072
     46 H12         1.8666   -1.7789   -6.1770 H         1 <0>         0.1019
     47 H13         1.4268   -0.3279   -5.2387 H         1 <0>         0.0765
     48 H14         5.1071    0.1970   -4.3758 H         1 <0>         0.0921
     49 H15         3.5174    0.9468   -4.0767 H         1 <0>         0.0758
     50 H16         4.1031   -0.2601   -2.0691 H         1 <0>         0.1110
     51 H17         4.5475   -1.7117   -3.0041 H         1 <0>         0.0801
     52 H18         5.9519    0.1865   -5.8026 H         1 <0>         0.1298
     53 H19         6.6373   -2.1413  -10.7293 H         1 <0>         0.1686
     54 H20         8.7055   -0.7607   -9.9547 H         1 <0>         0.2001
     55 H21         7.1716    1.4198   -4.4737 H         1 <0>         0.1936
     56 H22         5.9156    3.0908   -3.0170 H         1 <0>         0.2329
     57 H23         2.7848   -2.1830   -7.4409 H         1 <0>         0.1657
@<TRIPOS>BOND
     1    1    2 1
     2    1   35 1
     3    1   36 1
     4    1   37 1
     5    2    3 1
     6    2    4 1
     7    2    5 1
     8    3   38 1
     9    3   39 1
    10    3   40 1
    11    4   41 1
    12    4   42 1
    13    4   43 1
    14    5    6 1
    15    6    7 2
    16    6    8 am
    17    8   13 1
    18    8    9 1
    19    9   10 1
    20    9   44 1
    21    9   45 1
    22   10   11 1
    23   10   46 1
    24   10   47 1
    25   11   12 1
    26   11   14 1
    27   12   13 1
    28   12   48 1
    29   12   49 1
    30   13   50 1
    31   13   51 1
    32   14   34 ar
    33   14   15 ar
    34   15   16 ar
    35   15   52 1
    36   16   20 1
    37   16   17 ar
    38   17   18 1
    39   17   33 ar
    40   18   19 2
    41   18   53 1
    42   19   20 1
    43   19   54 1
    44   20   21 1
    45   21   22 2
    46   21   23 2
    47   21   24 1
    48   24   28 1
    49   24   25 2
    50   25   26 1
    51   25   32 1
    52   26   27 2
    53   27   31 1
    54   27   28 1
    55   28   29 1
    56   29   30 2
    57   29   55 1
    58   30   31 1
    59   30   56 1
    60   33   34 ar
    61   34   57 1
@<TRIPOS>MOLECULE
CHEMBL1170607
   46    50     0     0     0
SMALL
USER_CHARGES

@<TRIPOS>ATOM
      1 C1          0.9262    1.9187   -0.8347 C.ar      1 <0>        -0.1173
      2 C2          0.0435    1.2121   -1.6382 C.ar      1 <0>        -0.0911
      3 C3          0.2229   -0.1385   -1.8561 C.ar      1 <0>        -0.0925
      4 C4          1.2924   -0.7969   -1.2697 C.ar      1 <0>         0.0065
      5 C5          2.1889   -0.0856   -0.4559 C.ar      1 <0>         0.0233
      6 C6          1.9941    1.2815   -0.2439 C.ar      1 <0>        -0.0603
      7 N1          3.1186   -0.9776   -0.0271 N.2       1 <0>        -0.4614
      8 C7          2.8348   -2.1546   -0.5272 C.2       1 <0>         0.3031
      9 O1          1.7271   -2.0768   -1.2890 O.3       1 <0>        -0.2114
     10 C8          3.6148   -3.3850   -0.2908 C.ar      1 <0>        -0.1466
     11 C9          5.0074   -3.3748   -0.4004 C.ar      1 <0>         0.0226
     12 C10         5.6971   -4.5644   -0.1670 C.ar      1 <0>        -0.1041
     13 C11         4.9812   -5.7127    0.1646 C.ar      1 <0>         0.1790
     14 N2          3.6669   -5.6901    0.2602 N.ar      1 <0>        -0.5322
     15 C12         2.9694   -4.5843    0.0537 C.ar      1 <0>         0.4362
     16 N3          1.5890   -4.6112    0.1729 N.pl3     1 <0>        -0.8382
     17 C13         7.1782   -4.6067   -0.2713 C.2       1 <0>        -0.1857
     18 C14         8.0209   -3.5248   -0.5908 C.2       1 <0>         0.0624
     19 N4          9.2549   -3.9553   -0.5847 N.2       1 <0>        -0.2893
     20 N5          9.2487   -5.3181   -0.2636 N.pl3     1 <0>        -0.3612
     21 C15         7.9694   -5.6992   -0.0691 C.2       1 <0>         0.0690
     22 C16        10.4282   -6.1799   -0.1522 C.3       1 <0>         0.1612
     23 C17        10.2027   -7.2170    0.9523 C.3       1 <0>        -0.1682
     24 C18        11.4063   -8.1614    1.0082 C.3       1 <0>         0.0652
     25 O2         11.5835   -8.7812   -0.2672 O.3       1 <0>        -0.3781
     26 C19        11.8449   -7.8632   -1.3308 C.3       1 <0>         0.0638
     27 C20        10.6590   -6.9068   -1.4806 C.3       1 <0>        -0.1675
     28 H1          0.7773    2.9764   -0.6751 H         1 <0>         0.1396
     29 H2         -0.7907    1.7227   -2.0963 H         1 <0>         0.1425
     30 H3         -0.4691   -0.6818   -2.4824 H         1 <0>         0.1367
     31 H4          2.6787    1.8363    0.3806 H         1 <0>         0.1380
     32 H5          5.5362   -2.4694   -0.6595 H         1 <0>         0.1443
     33 H6          5.5115   -6.6359    0.3457 H         1 <0>         0.1618
     34 H7          1.0807   -3.7874    0.1102 H         1 <0>         0.4085
     35 H8          1.1311   -5.4538    0.3189 H         1 <0>         0.4106
     36 H9          7.7029   -2.5150   -0.8042 H         1 <0>         0.1850
     37 H10         7.6324   -6.6905    0.1958 H         1 <0>         0.1757
     38 H11        11.3015   -5.5734    0.0880 H         1 <0>         0.1061
     39 H12        10.0926   -6.7101    1.9109 H         1 <0>         0.0876
     40 H13         9.3005   -7.7891    0.7360 H         1 <0>         0.0844
     41 H14        12.3015   -7.5946    1.2644 H         1 <0>         0.0580
     42 H15        11.2324   -8.9276    1.7637 H         1 <0>         0.1059
     43 H16        12.7458   -7.2926   -1.1052 H         1 <0>         0.0577
     44 H17        11.9869   -8.4146   -2.2602 H         1 <0>         0.1042
     45 H18         9.7660   -7.4727   -1.7461 H         1 <0>         0.0807
     46 H19        10.8751   -6.1781   -2.2619 H         1 <0>         0.0855
@<TRIPOS>BOND
     1    1    6 ar
     2    1    2 ar
     3    1   28 1
     4    2    3 ar
     5    2   29 1
     6    3    4 ar
     7    3   30 1
     8    4    9 1
     9    4    5 ar
    10    5    6 ar
    11    5    7 1
    12    6   31 1
    13    7    8 2
    14    8    9 1
    15    8   10 1
    16   10   15 ar
    17   10   11 ar
    18   11   12 ar
    19   11   32 1
    20   12   13 ar
    21   12   17 1
    22   13   14 ar
    23   13   33 1
    24   14   15 ar
    25   15   16 1
    26   16   34 1
    27   16   35 1
    28   17   21 2
    29   17   18 1
    30   18   19 2
    31   18   36 1
    32   19   20 1
    33   20   21 1
    34   20   22 1
    35   21   37 1
    36   22   27 1
    37   22   23 1
    38   22   38 1
    39   23   24 1
    40   23   39 1
    41   23   40 1
    42   24   25 1
    43   24   41 1
    44   24   42 1
    45   25   26 1
    46   26   27 1
    47   26   43 1
    48   26   44 1
    49   27   45 1
    50   27   46 1
@<TRIPOS>MOLECULE
CHEMBL1170607__1
   47    51     0     0     0
SMALL
USER_CHARGES

@<TRIPOS>ATOM
      1 C1          0.2692    1.5060    0.8434 C.ar      1 <0>        -0.1119
      2 C2          1.3162    1.9387    1.6438 C.ar      1 <0>        -0.0674
      3 C3          2.4251    1.1410    1.8378 C.ar      1 <0>        -0.0986
      4 C4          2.4965   -0.1027    1.2301 C.ar      1 <0>         0.0264
      5 C5          1.4388   -0.5452    0.4193 C.ar      1 <0>         0.0116
      6 C6          0.3225    0.2737    0.2317 C.ar      1 <0>        -0.0466
      7 N1          1.7836   -1.7783   -0.0332 N.2       1 <0>        -0.4176
      8 C7          2.9603   -2.0903    0.4502 C.2       1 <0>         0.2443
      9 O1          3.4209   -1.0891    1.2241 O.3       1 <0>        -0.2106
     10 C8          3.6760   -3.3536    0.1860 C.ar      1 <0>        -0.0702
     11 C9          3.0121   -4.5790    0.2819 C.ar      1 <0>         0.0763
     12 C10         3.7344   -5.7436    0.0222 C.ar      1 <0>        -0.0098
     13 C11         5.0812   -5.6473   -0.3210 C.ar      1 <0>         0.1361
     14 N2          5.6794   -4.4757   -0.4031 N.ar      1 <0>        -0.4843
     15 C12         5.0345   -3.3433   -0.1716 C.ar      1 <0>         0.4630
     16 N3          5.7072   -2.1364   -0.2774 N.pl3     1 <0>        -0.8099
     17 C13         3.0751   -7.0717    0.1110 C.2       1 <0>        -0.2310
     18 C14         1.7269   -7.3110    0.4398 C.2       1 <0>         0.0788
     19 N4          1.5255   -8.6020    0.4143 N.2       1 <0>        -0.2707
     20 N5          2.7274   -9.2329    0.0710 N.pl3     1 <0>        -0.3441
     21 C15         3.6642   -8.2806   -0.1169 C.2       1 <0>         0.0988
     22 C16         2.9309  -10.6772   -0.0661 C.3       1 <0>         0.1520
     23 C17         3.9411  -10.9483   -1.1851 C.3       1 <0>        -0.1670
     24 C18         4.2068  -12.4537   -1.2685 C.3       1 <0>         0.0629
     25 O2          4.6825  -12.9228   -0.0052 O.3       1 <0>        -0.3753
     26 C19         3.7599  -12.7388    1.0705 C.3       1 <0>         0.0617
     27 C20         3.4764  -11.2449    1.2478 C.3       1 <0>        -0.1662
     28 H1         -0.5952    2.1379    0.7027 H         1 <0>         0.1485
     29 H2          1.2631    2.9074    2.1185 H         1 <0>         0.1513
     30 H3          3.2365    1.4854    2.4619 H         1 <0>         0.1432
     31 H4         -0.4954   -0.0588   -0.3903 H         1 <0>         0.1454
     32 H5          1.9670   -4.6235    0.5504 H         1 <0>         0.1823
     33 H6          5.6440   -6.5467   -0.5225 H         1 <0>         0.2096
     34 H7          5.2207   -1.3012   -0.1960 H         1 <0>         0.4390
     35 H8          6.6646   -2.1268   -0.4329 H         1 <0>         0.4265
     36 H9          0.9881   -6.5585    0.6728 H         1 <0>         0.1938
     37 H10         4.6947   -8.4457   -0.3946 H         1 <0>         0.1819
     38 H11         1.9823  -11.1580   -0.3051 H         1 <0>         0.1154
     39 H12         3.5365  -10.5968   -2.1342 H         1 <0>         0.0895
     40 H13         4.8729  -10.4255   -0.9693 H         1 <0>         0.0822
     41 H14         3.2828  -12.9723   -1.5243 H         1 <0>         0.0621
     42 H15         4.9572  -12.6486   -2.0346 H         1 <0>         0.1092
     43 H16         2.8301  -13.2611    0.8453 H         1 <0>         0.0617
     44 H17         4.1885  -13.1390    1.9894 H         1 <0>         0.1085
     45 H18         4.3987  -10.7280    1.5128 H         1 <0>         0.0803
     46 H19         2.7394  -11.1054    2.0387 H         1 <0>         0.0889
     47 H20         6.6183   -4.4422   -0.6442 H         1 <0>         0.4500
@<TRIPOS>BOND
     1    1    6 ar
     2    1    2 ar
     3    1   28 1
     4    2    3 ar
     5    2   29 1
     6    3    4 ar
     7    3   30 1
     8    4    9 1
     9    4    5 ar
    10    5    6 ar
    11    5    7 1
    12    6   31 1
    13    7    8 2
    14    8    9 1
    15    8   10 1
    16   10   15 ar
    17   10   11 ar
    18   11   12 ar
    19   11   32 1
    20   12   13 ar
    21   12   17 1
    22   13   14 ar
    23   13   33 1
    24   14   15 ar
    25   14   47 1
    26   15   16 1
    27   16   34 1
    28   16   35 1
    29   17   21 2
    30   17   18 1
    31   18   19 2
    32   18   36 1
    33   19   20 1
    34   20   21 1
    35   20   22 1
    36   21   37 1
    37   22   27 1
    38   22   23 1
    39   22   38 1
    40   23   24 1
    41   23   39 1
    42   23   40 1
    43   24   25 1
    44   24   41 1
    45   24   42 1
    46   25   26 1
    47   26   27 1
    48   26   43 1
    49   26   44 1
    50   27   45 1
    51   27   46 1
@<TRIPOS>MOLECULE
CHEMBL461139
   53    57     0     0     0
SMALL
USER_CHARGES

@<TRIPOS>ATOM
      1 C1         -0.0167    1.3796    0.0096 C.ar      1 <0>        -0.1137
      2 C2          1.1662    2.0887    0.0021 C.ar      1 <0>        -0.1094
      3 C3          2.3857    1.4065   -0.0132 C.ar      1 <0>        -0.0486
      4 C4          2.3967    0.0091   -0.0208 C.ar      1 <0>        -0.1107
      5 C5          1.2058   -0.6865   -0.0132 C.ar      1 <0>        -0.0924
      6 C6          0.0021   -0.0041    0.0020 C.ar      1 <0>        -0.0806
      7 C7         -1.2948   -0.7716    0.0108 C.3       1 <0>         0.0938
      8 N1         -1.7300   -1.0135   -1.3712 N.3       1 <0>        -0.5313
      9 C8         -2.0817    0.2470   -2.0412 C.3       1 <0>         0.0142
     10 C9         -2.4712   -0.0443   -3.4928 C.3       1 <0>         0.0629
     11 O1         -3.5469   -0.9865   -3.5127 O.3       1 <0>        -0.3865
     12 C10        -3.2386   -2.2260   -2.8693 C.3       1 <0>         0.0631
     13 C11        -2.8569   -1.9568   -1.4113 C.3       1 <0>         0.0171
     14 C12         3.6540    2.1571   -0.0218 C.2       1 <0>        -0.1233
     15 C13         4.8240    1.4982   -0.0365 C.2       1 <0>        -0.0891
     16 C14         6.0919    2.2485   -0.0450 C.2       1 <0>         0.0992
     17 C15         7.3038    1.5572   -0.0661 C.2       1 <0>        -0.0902
     18 C16         8.4983    2.2888   -0.0739 C.2       1 <0>         0.0153
     19 C17         8.4173    3.6915   -0.0601 C.2       1 <0>        -0.1750
     20 C18         7.1758    4.2946   -0.0395 C.2       1 <0>         0.0864
     21 N2          6.0703    3.5780   -0.0381 N.pl3     1 <0>        -0.5618
     22 C19         9.8056    1.6054   -0.0956 C.2       1 <0>         0.0350
     23 C20        11.1324    2.2797   -0.0995 C.2       1 <0>        -0.0861
     24 C21        12.0608    1.2928   -0.1210 C.2       1 <0>        -0.3341
     25 C22        11.3144    0.0110   -0.1304 C.2       1 <0>         0.3575
     26 N3          9.9848    0.3066   -0.1087 N.2       1 <0>        -0.5568
     27 N4         12.0141   -1.1018   -0.1507 N.2       1 <0>        -0.6465
     28 C23        13.3490   -1.0907   -0.1625 C.2       1 <0>         0.3885
     29 N5         14.0854   -0.0173   -0.1557 N.2       1 <0>        -0.6967
     30 C24        13.5328    1.2189   -0.1355 C.2       1 <0>         0.5461
     31 O2         14.2202    2.2228   -0.1296 O.2       1 <0>        -0.5612
     32 H1         -0.9599    1.9054    0.0260 H         1 <0>         0.1188
     33 H2          1.1500    3.1686    0.0078 H         1 <0>         0.1231
     34 H3          3.3354   -0.5248   -0.0330 H         1 <0>         0.1295
     35 H4          1.2128   -1.7664   -0.0194 H         1 <0>         0.1254
     36 H5         -1.1492   -1.7252    0.5181 H         1 <0>         0.0863
     37 H6         -2.0556   -0.1934    0.5353 H         1 <0>         0.0445
     38 H7         -2.9220    0.7113   -1.5250 H         1 <0>         0.0418
     39 H8         -1.2250    0.9206   -2.0223 H         1 <0>         0.0915
     40 H9         -2.7875    0.8795   -3.9772 H         1 <0>         0.0980
     41 H10        -1.6141   -0.4592   -4.0234 H         1 <0>         0.0609
     42 H11        -4.1099   -2.8800   -2.9026 H         1 <0>         0.0986
     43 H12        -2.4038   -2.7043   -3.3817 H         1 <0>         0.0612
     44 H13        -2.5660   -2.8919   -0.9326 H         1 <0>         0.0879
     45 H14        -3.7096   -1.5277   -0.8851 H         1 <0>         0.0432
     46 H15         3.6424    3.2370   -0.0162 H         1 <0>         0.1139
     47 H16         4.8355    0.4183   -0.0421 H         1 <0>         0.1438
     48 H17         7.3206    0.4773   -0.0758 H         1 <0>         0.1525
     49 H18         9.3157    4.2907   -0.0652 H         1 <0>         0.1420
     50 H19         7.1096    5.3725   -0.0285 H         1 <0>         0.1620
     51 H20        11.3183    3.3435   -0.0880 H         1 <0>         0.1220
     52 H21        13.8562   -2.0441   -0.1787 H         1 <0>         0.1592
     53 H22         5.2143    4.0343   -0.0275 H         1 <0>         0.4089
@<TRIPOS>BOND
     1    1    6 ar
     2    1    2 ar
     3    1   32 1
     4    2    3 ar
     5    2   33 1
     6    3    4 ar
     7    3   14 1
     8    4    5 ar
     9    4   34 1
    10    5    6 ar
    11    5   35 1
    12    6    7 1
    13    7    8 1
    14    7   36 1
    15    7   37 1
    16    8   13 1
    17    8    9 1
    18    9   10 1
    19    9   38 1
    20    9   39 1
    21   10   11 1
    22   10   40 1
    23   10   41 1
    24   11   12 1
    25   12   13 1
    26   12   42 1
    27   12   43 1
    28   13   44 1
    29   13   45 1
    30   14   15 2
    31   14   46 1
    32   15   16 1
    33   15   47 1
    34   16   21 1
    35   16   17 2
    36   17   18 1
    37   17   48 1
    38   18   19 1
    39   18   22 1
    40   19   20 2
    41   19   49 1
    42   20   21 1
    43   20   50 1
    44   21   53 1
    45   22   26 2
    46   22   23 1
    47   23   24 2
    48   23   51 1
    49   24   30 1
    50   24   25 1
    51   25   26 1
    52   25   27 2
    53   27   28 1
    54   28   29 2
    55   28   52 1
    56   29   30 1
    57   30   31 2
@<TRIPOS>MOLECULE
CHEMBL461139__1
   54    58     0     0     0
SMALL
USER_CHARGES

@<TRIPOS>ATOM
      1 C1         -0.0167    1.3796    0.0096 C.ar      1 <0>        -0.1152
      2 C2          1.1662    2.0887    0.0021 C.ar      1 <0>        -0.0986
      3 C3          2.3857    1.4065   -0.0132 C.ar      1 <0>        -0.0661
      4 C4          2.3967    0.0092   -0.0208 C.ar      1 <0>        -0.1072
      5 C5          1.2058   -0.6865   -0.0132 C.ar      1 <0>        -0.0975
      6 C6          0.0021   -0.0041    0.0020 C.ar      1 <0>        -0.0728
      7 C7         -1.2948   -0.7716    0.0108 C.3       1 <0>         0.0917
      8 N1         -1.7300   -1.0135   -1.3712 N.3       1 <0>        -0.5316
      9 C8         -2.0817    0.2470   -2.0412 C.3       1 <0>         0.0134
     10 C9         -2.4712   -0.0443   -3.4928 C.3       1 <0>         0.0632
     11 O1         -3.5469   -0.9865   -3.5127 O.3       1 <0>        -0.3853
     12 C10        -3.2386   -2.2260   -2.8693 C.3       1 <0>         0.0633
     13 C11        -2.8569   -1.9568   -1.4113 C.3       1 <0>         0.0167
     14 C12         3.6540    2.1571   -0.0218 C.2       1 <0>        -0.0527
     15 C13         4.8239    1.4983   -0.0365 C.2       1 <0>        -0.1308
     16 C14         6.0919    2.2486   -0.0450 C.ar      1 <0>         0.1733
     17 C15         7.3031    1.5581   -0.0661 C.ar      1 <0>        -0.1663
     18 C16         8.4952    2.2873   -0.0745 C.ar      1 <0>         0.0336
     19 C17         8.4172    3.6874   -0.0611 C.ar      1 <0>        -0.1622
     20 C18         7.1784    4.2937   -0.0404 C.ar      1 <0>         0.1194
     21 N2          6.0707    3.5790   -0.0381 N.ar      1 <0>        -0.4840
     22 C19         9.8034    1.6012   -0.0962 C.2       1 <0>         0.0608
     23 C20        11.0160    2.2140   -0.1003 C.2       1 <0>        -0.0799
     24 C21        11.9994    1.2031   -0.1226 C.2       1 <0>        -0.2660
     25 C22        11.3291   -0.0300   -0.1315 C.2       1 <0>         0.2977
     26 N3          9.9913    0.2348   -0.1097 N.pl3     1 <0>        -0.5265
     27 H1          9.2855   -0.4307   -0.1067 H         1 <0>         0.4243
     28 N4         12.0490   -1.1621   -0.1521 N.2       1 <0>        -0.5293
     29 C23        13.3502   -1.1504   -0.1640 C.2       1 <0>         0.3976
     30 N5         14.0804   -0.0073   -0.1567 N.am      1 <0>        -0.6510
     31 H2         15.0493   -0.0524   -0.1665 H         1 <0>         0.4247
     32 C24        13.4609    1.1962   -0.1364 C.2       1 <0>         0.5657
     33 O2         14.0981    2.2350   -0.1297 O.2       1 <0>        -0.5171
     34 H3         -0.9599    1.9054    0.0260 H         1 <0>         0.1214
     35 H4          1.1500    3.1686    0.0078 H         1 <0>         0.1273
     36 H5          3.3354   -0.5247   -0.0330 H         1 <0>         0.1256
     37 H6          1.2128   -1.7664   -0.0194 H         1 <0>         0.1249
     38 H7         -1.1492   -1.7253    0.5181 H         1 <0>         0.0865
     39 H8         -2.0556   -0.1934    0.5353 H         1 <0>         0.0463
     40 H9         -2.9220    0.7113   -1.5250 H         1 <0>         0.0433
     41 H10        -1.2250    0.9206   -2.0223 H         1 <0>         0.0911
     42 H11        -2.7875    0.8795   -3.9772 H         1 <0>         0.0988
     43 H12        -1.6141   -0.4592   -4.0234 H         1 <0>         0.0600
     44 H13        -4.1099   -2.8800   -2.9026 H         1 <0>         0.0994
     45 H14        -2.4038   -2.7043   -3.3817 H         1 <0>         0.0604
     46 H15        -2.5660   -2.8919   -0.9326 H         1 <0>         0.0877
     47 H16        -3.7096   -1.5277   -0.8851 H         1 <0>         0.0445
     48 H17         3.6424    3.2370   -0.0162 H         1 <0>         0.1362
     49 H18         4.8355    0.4183   -0.0421 H         1 <0>         0.1305
     50 H19         7.3197    0.4783   -0.0756 H         1 <0>         0.1305
     51 H20         9.3172    4.2845   -0.0666 H         1 <0>         0.1435
     52 H21         7.1148    5.3718   -0.0301 H         1 <0>         0.1644
     53 H22        11.1941    3.2791   -0.0890 H         1 <0>         0.1578
     54 H23        13.8733   -2.0952   -0.1800 H         1 <0>         0.2148
@<TRIPOS>BOND
     1    1    6 ar
     2    1    2 ar
     3    1   34 1
     4    2    3 ar
     5    2   35 1
     6    3    4 ar
     7    3   14 1
     8    4    5 ar
     9    4   36 1
    10    5    6 ar
    11    5   37 1
    12    6    7 1
    13    7    8 1
    14    7   38 1
    15    7   39 1
    16    8   13 1
    17    8    9 1
    18    9   10 1
    19    9   40 1
    20    9   41 1
    21   10   11 1
    22   10   42 1
    23   10   43 1
    24   11   12 1
    25   12   13 1
    26   12   44 1
    27   12   45 1
    28   13   46 1
    29   13   47 1
    30   14   15 2
    31   14   48 1
    32   15   16 1
    33   15   49 1
    34   16   21 ar
    35   16   17 ar
    36   17   18 ar
    37   17   50 1
    38   18   19 ar
    39   18   22 1
    40   19   20 ar
    41   19   51 1
    42   20   21 ar
    43   20   52 1
    44   22   26 1
    45   22   23 2
    46   23   24 1
    47   23   53 1
    48   24   32 1
    49   24   25 2
    50   25   26 1
    51   25   28 1
    52   26   27 1
    53   28   29 2
    54   29   30 1
    55   29   54 1
    56   30   31 1
    57   30   32 am
    58   32   33 2
@<TRIPOS>MOLECULE
CHEMBL561256
   28    30     0     0     0
SMALL
USER_CHARGES

@<TRIPOS>ATOM
      1 C1         -0.0167    1.3781    0.0096 C.ar      1 <0>        -0.1096
      2 C2          1.1709    2.0855    0.0021 C.ar      1 <0>        -0.1197
      3 C3          2.3773    1.4107   -0.0130 C.ar      1 <0>        -0.0995
      4 C4          2.3960    0.0285   -0.0201 C.ar      1 <0>        -0.1191
      5 C5          1.2084   -0.6789   -0.0117 C.ar      1 <0>        -0.1000
      6 C6          0.0021   -0.0041    0.0020 C.ar      1 <0>        -0.1194
      7 C7          3.7112   -0.7071   -0.0376 C.3       1 <0>         0.1511
      8 N1          4.1518   -0.9524    1.3379 N.pl3     1 <0>        -0.4750
      9 C8          5.0070   -0.1535    2.0431 C.2       1 <0>         0.0709
     10 C9          5.2021   -0.6623    3.2712 C.2       1 <0>        -0.1909
     11 C10         4.4065   -1.8882    3.3603 C.ar      1 <0>         0.0902
     12 C11         3.7618   -2.0189    2.1154 C.ar      1 <0>         0.0515
     13 C12         2.9197   -3.1063    1.9039 C.ar      1 <0>        -0.0839
     14 C13         2.7502   -4.0144    2.9338 C.ar      1 <0>        -0.1566
     15 C14         3.4145   -3.8214    4.1353 C.ar      1 <0>         0.0888
     16 N2          4.2130   -2.7916    4.3166 N.ar      1 <0>        -0.4500
     17 H1         -0.9591    1.9053    0.0259 H         1 <0>         0.1252
     18 H2          1.1563    3.1654    0.0076 H         1 <0>         0.1259
     19 H3          3.3051    1.9634   -0.0196 H         1 <0>         0.1231
     20 H4          1.2231   -1.7588   -0.0176 H         1 <0>         0.1202
     21 H5         -0.9258   -0.5567    0.0082 H         1 <0>         0.1255
     22 H6          3.5884   -1.6586   -0.5549 H         1 <0>         0.0949
     23 H7          4.4573   -0.1052   -0.5563 H         1 <0>         0.1028
     24 H8          5.4595    0.7528    1.6686 H         1 <0>         0.1752
     25 H9          5.8279   -0.2455    4.0465 H         1 <0>         0.1546
     26 H10         2.4113   -3.2379    0.9602 H         1 <0>         0.1272
     27 H11         2.1034   -4.8692    2.8026 H         1 <0>         0.1386
     28 H12         3.2782   -4.5332    4.9360 H         1 <0>         0.1577
@<TRIPOS>BOND
     1    1    6 ar
     2    1    2 ar
     3    1   17 1
     4    2    3 ar
     5    2   18 1
     6    3    4 ar
     7    3   19 1
     8    4    5 ar
     9    4    7 1
    10    5    6 ar
    11    5   20 1
    12    6   21 1
    13    7    8 1
    14    7   22 1
    15    7   23 1
    16    8   12 1
    17    8    9 1
    18    9   10 2
    19    9   24 1
    20   10   11 1
    21   10   25 1
    22   11   16 ar
    23   11   12 ar
    24   12   13 ar
    25   13   14 ar
    26   13   26 1
    27   14   15 ar
    28   14   27 1
    29   15   16 ar
    30   15   28 1
@<TRIPOS>MOLECULE
CHEMBL561256__1
   29    31     0     0     0
SMALL
USER_CHARGES

@<TRIPOS>ATOM
      1 C1         -0.0167    1.3781    0.0096 C.ar      1 <0>        -0.0974
      2 C2          1.1709    2.0855    0.0021 C.ar      1 <0>        -0.1145
      3 C3          2.3773    1.4107   -0.0130 C.ar      1 <0>        -0.0954
      4 C4          2.3960    0.0285   -0.0201 C.ar      1 <0>        -0.1379
      5 C5          1.2084   -0.6789   -0.0117 C.ar      1 <0>        -0.1031
      6 C6          0.0021   -0.0041    0.0020 C.ar      1 <0>        -0.1165
      7 C7          3.7112   -0.7071   -0.0376 C.3       1 <0>         0.1424
      8 N1          4.1518   -0.9524    1.3379 N.pl3     1 <0>        -0.4487
      9 C8          5.0070   -0.1535    2.0431 C.2       1 <0>         0.1361
     10 C9          5.2021   -0.6623    3.2712 C.2       1 <0>        -0.2071
     11 C10         4.4065   -1.8882    3.3603 C.ar      1 <0>         0.0890
     12 C11         3.7618   -2.0189    2.1154 C.ar      1 <0>         0.0782
     13 C12         2.9197   -3.1063    1.9039 C.ar      1 <0>         0.0158
     14 C13         2.7502   -4.0144    2.9338 C.ar      1 <0>        -0.1410
     15 C14         3.4145   -3.8214    4.1353 C.ar      1 <0>         0.1543
     16 N2          4.2130   -2.7916    4.3166 N.ar      1 <0>        -0.4237
     17 H1         -0.9591    1.9053    0.0259 H         1 <0>         0.1315
     18 H2          1.1563    3.1654    0.0076 H         1 <0>         0.1320
     19 H3          3.3051    1.9634   -0.0196 H         1 <0>         0.1267
     20 H4          1.2231   -1.7588   -0.0176 H         1 <0>         0.1194
     21 H5         -0.9258   -0.5567    0.0082 H         1 <0>         0.1307
     22 H6          3.5884   -1.6586   -0.5549 H         1 <0>         0.1099
     23 H7          4.4573   -0.1052   -0.5563 H         1 <0>         0.1213
     24 H8          5.4595    0.7528    1.6686 H         1 <0>         0.2027
     25 H9          5.8279   -0.2455    4.0465 H         1 <0>         0.1808
     26 H10         2.4113   -3.2379    0.9602 H         1 <0>         0.1675
     27 H11         2.1034   -4.8692    2.8026 H         1 <0>         0.1885
     28 H12         3.2782   -4.5332    4.9360 H         1 <0>         0.2111
     29 H13         4.6627   -2.6840    5.1693 H         1 <0>         0.4475
@<TRIPOS>BOND
     1    1    6 ar
     2    1    2 ar
     3    1   17 1
     4    2    3 ar
     5    2   18 1
     6    3    4 ar
     7    3   19 1
     8    4    5 ar
     9    4    7 1
    10    5    6 ar
    11    5   20 1
    12    6   21 1
    13    7    8 1
    14    7   22 1
    15    7   23 1
    16    8   12 1
    17    8    9 1
    18    9   10 2
    19    9   24 1
    20   10   11 1
    21   10   25 1
    22   11   16 ar
    23   11   12 ar
    24   12   13 ar
    25   13   14 ar
    26   13   26 1
    27   14   15 ar
    28   14   27 1
    29   15   16 ar
    30   15   28 1
    31   16   29 1
@<TRIPOS>MOLECULE
CHEMBL1087984
   60    64     0     0     0
SMALL
USER_CHARGES

@<TRIPOS>ATOM
      1 C1          2.2840   -0.6174    0.0304 C.3       1 <0>         0.0227
      2 O1          0.8684   -0.8071   -0.0148 O.3       1 <0>        -0.3016
      3 C2          0.2125   -0.3054   -1.0952 C.ar      1 <0>         0.1134
      4 C3          0.9146    0.3386   -2.0728 C.ar      1 <0>        -0.1535
      5 C4          0.2378    0.8560   -3.1874 C.ar      1 <0>        -0.1056
      6 C5          0.9311    1.5280   -4.2191 C.ar      1 <0>         0.1813
      7 C6          0.1958    2.0109   -5.2874 C.ar      1 <0>        -0.2651
      8 C7         -1.1805    1.8251   -5.3163 C.ar      1 <0>         0.1654
      9 N1         -1.8147    1.1997   -4.3524 N.ar      1 <0>        -0.4930
     10 C8         -1.1668    0.7068   -3.2901 C.ar      1 <0>         0.1716
     11 C9         -1.8613    0.0395   -2.2676 C.ar      1 <0>        -0.1797
     12 C10        -1.1774   -0.4599   -1.1968 C.ar      1 <0>         0.1516
     13 O2         -1.8533   -1.1101   -0.2136 O.3       1 <0>        -0.2997
     14 C11        -3.2678   -1.2362   -0.3728 C.3       1 <0>         0.0210
     15 O3          2.2755    1.6951   -4.1639 O.3       1 <0>        -0.2368
     16 C12         2.8937    2.2570   -5.2370 C.ar      1 <0>         0.0253
     17 C13         3.4207    1.4503   -6.2345 C.ar      1 <0>        -0.0685
     18 C14         4.0487    2.0200   -7.3246 C.ar      1 <0>        -0.1388
     19 C15         4.1526    3.4013   -7.4233 C.ar      1 <0>         0.1878
     20 C16         3.6249    4.2100   -6.4255 C.ar      1 <0>        -0.1470
     21 C17         2.9921    3.6393   -5.3367 C.ar      1 <0>         0.1216
     22 F1          2.4742    4.4253   -4.3676 F         1 <0>        -0.1202
     23 N2          4.7898    3.9785   -8.5285 N.am      1 <0>        -0.6636
     24 C18         5.5169    5.1030   -8.3759 C.2       1 <0>         0.5901
     25 O4          5.5614    5.6561   -7.2937 O.2       1 <0>        -0.4953
     26 C19         6.2580    5.6624   -9.5205 C.2       1 <0>        -0.2270
     27 C20         6.2967    5.1376  -10.8323 C.2       1 <0>         0.0886
     28 N3          7.0572    5.9124  -11.5560 N.2       1 <0>        -0.2454
     29 N4          7.5353    6.9553  -10.7548 N.pl3     1 <0>        -0.2683
     30 C21         7.0398    6.8005   -9.5135 C.2       1 <0>         0.0558
     31 C22         7.2935    7.7016   -8.3325 C.3       1 <0>         0.5331
     32 F2          6.3193    8.7049   -8.2936 F         1 <0>        -0.1604
     33 F3          7.2375    6.9513   -7.1530 F         1 <0>        -0.1269
     34 F4          8.5592    8.2850   -8.4545 F         1 <0>        -0.1655
     35 C23         8.3831    7.9891  -11.1755 C.ar      1 <0>         0.1122
     36 C24         8.2447    9.2631  -10.6412 C.ar      1 <0>        -0.1130
     37 C25         9.0816   10.2798  -11.0578 C.ar      1 <0>        -0.0968
     38 C26        10.0566   10.0298  -12.0060 C.ar      1 <0>        -0.1006
     39 C27        10.1969    8.7620  -12.5400 C.ar      1 <0>        -0.1036
     40 C28         9.3667    7.7399  -12.1232 C.ar      1 <0>        -0.0896
     41 H1          2.7422   -1.0926   -0.8369 H         1 <0>         0.0580
     42 H2          2.5081    0.4493    0.0210 H         1 <0>         0.0585
     43 H3          2.6815   -1.0641    0.9418 H         1 <0>         0.1049
     44 H4          1.9855    0.4495   -1.9885 H         1 <0>         0.1490
     45 H5          0.6899    2.5303   -6.0952 H         1 <0>         0.1383
     46 H6         -1.7443    2.2061   -6.1549 H         1 <0>         0.1630
     47 H7         -2.9325   -0.0823   -2.3307 H         1 <0>         0.1542
     48 H8         -3.6829   -1.7740    0.4796 H         1 <0>         0.1056
     49 H9         -3.7168   -0.2446   -0.4304 H         1 <0>         0.0607
     50 H10        -3.4828   -1.7861   -1.2890 H         1 <0>         0.0607
     51 H11         3.3403    0.3760   -6.1585 H         1 <0>         0.1496
     52 H12         4.4594    1.3910   -8.1006 H         1 <0>         0.1466
     53 H13         3.7055    5.2843   -6.5017 H         1 <0>         0.1624
     54 H14         4.7079    3.5689   -9.4040 H         1 <0>         0.4170
     55 H15         5.7861    4.2499  -11.1756 H         1 <0>         0.2110
     56 H16         7.4832    9.4590   -9.9008 H         1 <0>         0.1290
     57 H17         8.9742   11.2711  -10.6428 H         1 <0>         0.1403
     58 H18        10.7096   10.8265  -12.3304 H         1 <0>         0.1367
     59 H19        10.9590    8.5699  -13.2806 H         1 <0>         0.1396
     60 H20         9.4799    6.7487  -12.5370 H         1 <0>         0.1390
@<TRIPOS>BOND
     1    1    2 1
     2    1   41 1
     3    1   42 1
     4    1   43 1
     5    2    3 1
     6    3   12 ar
     7    3    4 ar
     8    4    5 ar
     9    4   44 1
    10    5   10 ar
    11    5    6 ar
    12    6    7 ar
    13    6   15 1
    14    7    8 ar
    15    7   45 1
    16    8    9 ar
    17    8   46 1
    18    9   10 ar
    19   10   11 ar
    20   11   12 ar
    21   11   47 1
    22   12   13 1
    23   13   14 1
    24   14   48 1
    25   14   49 1
    26   14   50 1
    27   15   16 1
    28   16   21 ar
    29   16   17 ar
    30   17   18 ar
    31   17   51 1
    32   18   19 ar
    33   18   52 1
    34   19   20 ar
    35   19   23 1
    36   20   21 ar
    37   20   53 1
    38   21   22 1
    39   23   24 am
    40   23   54 1
    41   24   25 2
    42   24   26 1
    43   26   30 2
    44   26   27 1
    45   27   28 2
    46   27   55 1
    47   28   29 1
    48   29   30 1
    49   29   35 1
    50   30   31 1
    51   31   32 1
    52   31   33 1
    53   31   34 1
    54   35   40 ar
    55   35   36 ar
    56   36   37 ar
    57   36   56 1
    58   37   38 ar
    59   37   57 1
    60   38   39 ar
    61   38   58 1
    62   39   40 ar
    63   39   59 1
    64   40   60 1
@<TRIPOS>MOLECULE
CHEMBL1099174
   54    58     0     0     0
SMALL
USER_CHARGES

@<TRIPOS>ATOM
      1 C1         -0.7571    1.1969    0.0469 C.3       1 <0>        -0.1175
      2 C2         -0.4308   -0.2736    0.0026 C.ar      1 <0>        -0.1106
      3 C3         -0.5950   -0.9832   -1.1711 C.ar      1 <0>        -0.1024
      4 C4         -0.2953   -2.3324   -1.2127 C.ar      1 <0>        -0.1273
      5 C5          0.1691   -2.9760   -0.0800 C.ar      1 <0>        -0.1065
      6 C6          0.3351   -2.2725    1.0966 C.ar      1 <0>        -0.1177
      7 C7          0.0408   -0.9156    1.1401 C.ar      1 <0>         0.1381
      8 N1          0.2132   -0.1989    2.3286 N.am      1 <0>        -0.6597
      9 C8          0.0363   -0.8109    3.5163 C.2       1 <0>         0.5783
     10 O1         -0.2413   -1.9943    3.5552 O.2       1 <0>        -0.5285
     11 C9          0.1792   -0.0459    4.7681 C.ar      1 <0>        -0.2569
     12 C10         0.3428    1.3441    4.7393 C.ar      1 <0>         0.0036
     13 C11         0.4726    2.0156    5.9417 C.ar      1 <0>        -0.2295
     14 C12         0.4376    1.3032    7.1276 C.ar      1 <0>         0.1847
     15 N2          0.2830   -0.0061    7.1340 N.ar      1 <0>        -0.5336
     16 C13         0.1478   -0.6979    6.0128 C.ar      1 <0>         0.4484
     17 N3         -0.0191   -2.0701    6.0668 N.pl3     1 <0>        -0.6399
     18 C14         0.1050   -2.7427    7.2880 C.ar      1 <0>         0.1896
     19 C15        -0.3376   -2.1424    8.4597 C.ar      1 <0>        -0.1148
     20 C16        -0.2153   -2.8058    9.6648 C.ar      1 <0>        -0.0698
     21 C17         0.3490   -4.0719    9.7063 C.ar      1 <0>         0.0252
     22 C18         0.7919   -4.6741    8.5352 C.ar      1 <0>         0.1118
     23 C19         0.6654   -4.0126    7.3276 C.ar      1 <0>        -0.1738
     24 F1          1.3421   -5.9074    8.5757 F         1 <0>        -0.1241
     25 O2          0.4693   -4.7241   10.8937 O.3       1 <0>        -0.2352
     26 C20         1.7073   -4.8336   11.4377 C.ar      1 <0>         0.2111
     27 C21         2.8015   -4.2002   10.8614 C.ar      1 <0>        -0.2825
     28 C22         4.0484   -4.3358   11.4459 C.ar      1 <0>         0.1775
     29 N4          4.2260   -5.0519   12.5368 N.ar      1 <0>        -0.5181
     30 C23         3.2196   -5.6804   13.1332 C.ar      1 <0>         0.3160
     31 C24         1.9215   -5.5848   12.6021 C.ar      1 <0>        -0.1772
     32 C25         1.0583   -6.3714   13.4843 C.2       1 <0>        -0.1746
     33 C26         1.8422   -6.8684   14.4538 C.2       1 <0>         0.0511
     34 N5          3.1383   -6.4725   14.2529 N.pl3     1 <0>        -0.5788
     35 H1          3.8865   -6.7067   14.8241 H         1 <0>         0.4229
     36 H2          0.1292    1.7739   -0.2170 H         1 <0>         0.0728
     37 H3         -1.5560    1.4134   -0.6624 H         1 <0>         0.0742
     38 H4         -1.0806    1.4672    1.0521 H         1 <0>         0.0619
     39 H5         -0.9581   -0.4838   -2.0571 H         1 <0>         0.1272
     40 H6         -0.4246   -2.8849   -2.1316 H         1 <0>         0.1247
     41 H7          0.4019   -4.0300   -0.1157 H         1 <0>         0.1265
     42 H8          0.6972   -2.7758    1.9809 H         1 <0>         0.1417
     43 H9          0.4602    0.7387    2.2981 H         1 <0>         0.4113
     44 H10         0.3675    1.8789    3.8014 H         1 <0>         0.1386
     45 H11         0.6007    3.0879    5.9548 H         1 <0>         0.1451
     46 H12         0.5391    1.8295    8.0652 H         1 <0>         0.1689
     47 H13        -0.2220   -2.5662    5.2583 H         1 <0>         0.4364
     48 H14        -0.7772   -1.1565    8.4283 H         1 <0>         0.1608
     49 H15        -0.5591   -2.3381   10.5756 H         1 <0>         0.1470
     50 H16         1.0058   -4.4817    6.4163 H         1 <0>         0.1455
     51 H17         2.6801   -3.6083    9.9663 H         1 <0>         0.1385
     52 H18         4.8973   -3.8424   10.9959 H         1 <0>         0.1651
     53 H19        -0.0056   -6.5229   13.3759 H         1 <0>         0.1531
     54 H20         1.5035   -7.4954   15.2654 H         1 <0>         0.1813
@<TRIPOS>BOND
     1    1    2 1
     2    1   36 1
     3    1   37 1
     4    1   38 1
     5    2    7 ar
     6    2    3 ar
     7    3    4 ar
     8    3   39 1
     9    4    5 ar
    10    4   40 1
    11    5    6 ar
    12    5   41 1
    13    6    7 ar
    14    6   42 1
    15    7    8 1
    16    8    9 am
    17    8   43 1
    18    9   10 2
    19    9   11 1
    20   11   16 ar
    21   11   12 ar
    22   12   13 ar
    23   12   44 1
    24   13   14 ar
    25   13   45 1
    26   14   15 ar
    27   14   46 1
    28   15   16 ar
    29   16   17 1
    30   17   18 1
    31   17   47 1
    32   18   23 ar
    33   18   19 ar
    34   19   20 ar
    35   19   48 1
    36   20   21 ar
    37   20   49 1
    38   21   22 ar
    39   21   25 1
    40   22   23 ar
    41   22   24 1
    42   23   50 1
    43   25   26 1
    44   26   31 ar
    45   26   27 ar
    46   27   28 ar
    47   27   51 1
    48   28   29 ar
    49   28   52 1
    50   29   30 ar
    51   30   34 1
    52   30   31 ar
    53   31   32 1
    54   32   33 2
    55   32   53 1
    56   33   34 1
    57   33   54 1
    58   34   35 1
@<TRIPOS>MOLECULE
CHEMBL508403
   49    53     0     0     0
SMALL
USER_CHARGES

@<TRIPOS>ATOM
      1 C1          3.8644   -4.5851    1.7637 C.ar      1 <0>        -0.1045
      2 C2          5.0037   -3.8015    1.7257 C.ar      1 <0>        -0.1242
      3 C3          4.9596   -2.5421    1.1630 C.ar      1 <0>        -0.0790
      4 C4          3.7645   -2.0603    0.6326 C.ar      1 <0>        -0.0562
      5 C5          2.6198   -2.8540    0.6736 C.ar      1 <0>        -0.0985
      6 C6          2.6754   -4.1119    1.2387 C.ar      1 <0>        -0.1215
      7 C7          3.7108   -0.7070    0.0268 C.ar      1 <0>         0.1745
      8 C8          2.5064   -0.2315   -0.4968 C.ar      1 <0>        -0.1346
      9 C9          2.4655    1.0319   -1.0594 C.ar      1 <0>        -0.0731
     10 C10         3.6298    1.7859   -1.0834 C.ar      1 <0>        -0.1081
     11 C11         4.7981    1.2520   -0.5437 C.ar      1 <0>         0.0811
     12 N1          4.8029    0.0390   -0.0069 N.ar      1 <0>        -0.4555
     13 C12         6.0464    2.0495   -0.5646 C.2       1 <0>         0.5786
     14 O1          6.0478    3.1633   -1.0508 O.2       1 <0>        -0.5034
     15 N2          7.1804    1.5397   -0.0445 N.am      1 <0>        -0.6545
     16 C13         8.3779    2.2586   -0.1374 C.ar      1 <0>         0.1818
     17 C14         9.5793    1.5861   -0.3203 C.ar      1 <0>        -0.1379
     18 C15        10.7609    2.2950   -0.4124 C.ar      1 <0>        -0.0692
     19 C16        10.7491    3.6789   -0.3225 C.ar      1 <0>         0.0287
     20 C17         9.5482    4.3533   -0.1395 C.ar      1 <0>         0.1201
     21 C18         8.3643    3.6445   -0.0524 C.ar      1 <0>        -0.1491
     22 F1          9.5368    5.7014   -0.0514 F         1 <0>        -0.1209
     23 O2         11.9133    4.3760   -0.4129 O.3       1 <0>        -0.2361
     24 C19        12.5636    4.6819    0.7379 C.ar      1 <0>         0.2105
     25 C20        12.0056    4.3877    1.9759 C.ar      1 <0>        -0.2836
     26 C21        12.6999    4.7149    3.1272 C.ar      1 <0>         0.1777
     27 N3         13.8789    5.3000    3.0804 N.ar      1 <0>        -0.5175
     28 C22        14.4632    5.6061    1.9278 C.ar      1 <0>         0.3164
     29 C23        13.8221    5.2996    0.7148 C.ar      1 <0>        -0.1773
     30 C24        14.7189    5.7529   -0.3493 C.2       1 <0>        -0.1749
     31 C25        15.8000    6.2766    0.2496 C.2       1 <0>         0.0518
     32 N4         15.6591    6.2035    1.6104 N.pl3     1 <0>        -0.5785
     33 H1         16.3122    6.5180    2.2550 H         1 <0>         0.4232
     34 H2          3.9045   -5.5718    2.2010 H         1 <0>         0.1259
     35 H3          5.9293   -4.1758    2.1375 H         1 <0>         0.1277
     36 H4          5.8496   -1.9310    1.1342 H         1 <0>         0.1331
     37 H5          1.6909   -2.4854    0.2642 H         1 <0>         0.1275
     38 H6          1.7889   -4.7280    1.2710 H         1 <0>         0.1283
     39 H7          1.6170   -0.8433   -0.4633 H         1 <0>         0.1467
     40 H8          1.5468    1.4226   -1.4715 H         1 <0>         0.1499
     41 H9          3.6306    2.7755   -1.5158 H         1 <0>         0.1530
     42 H10         7.1668    0.6747    0.3943 H         1 <0>         0.4263
     43 H11         9.5895    0.5084   -0.3901 H         1 <0>         0.1458
     44 H12        11.6948    1.7713   -0.5543 H         1 <0>         0.1496
     45 H13         7.4299    4.1683    0.0853 H         1 <0>         0.1604
     46 H14        11.0397    3.9088    2.0390 H         1 <0>         0.1385
     47 H15        12.2640    4.4851    4.0882 H         1 <0>         0.1659
     48 H16        14.5445    5.6798   -1.4126 H         1 <0>         0.1534
     49 H17        16.6503    6.6998   -0.2645 H         1 <0>         0.1817
@<TRIPOS>BOND
     1    1    6 ar
     2    1    2 ar
     3    1   34 1
     4    2    3 ar
     5    2   35 1
     6    3    4 ar
     7    3   36 1
     8    4    5 ar
     9    4    7 1
    10    5    6 ar
    11    5   37 1
    12    6   38 1
    13    7   12 ar
    14    7    8 ar
    15    8    9 ar
    16    8   39 1
    17    9   10 ar
    18    9   40 1
    19   10   11 ar
    20   10   41 1
    21   11   12 ar
    22   11   13 1
    23   13   14 2
    24   13   15 am
    25   15   16 1
    26   15   42 1
    27   16   21 ar
    28   16   17 ar
    29   17   18 ar
    30   17   43 1
    31   18   19 ar
    32   18   44 1
    33   19   20 ar
    34   19   23 1
    35   20   21 ar
    36   20   22 1
    37   21   45 1
    38   23   24 1
    39   24   29 ar
    40   24   25 ar
    41   25   26 ar
    42   25   46 1
    43   26   27 ar
    44   26   47 1
    45   27   28 ar
    46   28   32 1
    47   28   29 ar
    48   29   30 1
    49   30   31 2
    50   30   48 1
    51   31   32 1
    52   31   49 1
    53   32   33 1
@<TRIPOS>MOLECULE
CHEMBL564904
   54    59     0     0     0
SMALL
USER_CHARGES

@<TRIPOS>ATOM
      1 C1         -0.2465    1.7607    0.0686 C.ar      1 <0>        -0.1179
      2 C2          0.8186    2.5948    0.0764 C.ar      1 <0>        -0.0040
      3 C3          2.1314    2.0573    0.0539 C.ar      1 <0>         0.0724
      4 C4          2.2908    0.5908    0.0223 C.ar      1 <0>         0.1320
      5 C5          1.1242   -0.2167    0.0160 C.ar      1 <0>        -0.6656
      6 C6         -0.0952    0.3688    0.0387 C.ar      1 <0>         0.0869
      7 S1          1.2629   -1.9728   -0.0208 S.o2      1 <0>         2.6801
      8 O1          2.1966   -2.3277    0.9899 O.2       1 <0>        -0.9068
      9 O2         -0.0626   -2.4844   -0.0469 O.2       1 <0>        -0.9176
     10 N1          1.9556   -2.3791   -1.4690 N.pl3     1 <0>        -0.8229
     11 C7          3.1800   -2.9712   -1.6168 C.2       1 <0>         0.0504
     12 C8          3.4409   -3.1647   -2.9198 C.2       1 <0>        -0.1240
     13 C9          2.2899   -2.6551   -3.6699 C.ar      1 <0>         0.0655
     14 C10         1.3834   -2.1771   -2.7045 C.ar      1 <0>         0.1008
     15 C11         0.1757   -1.6299   -3.1251 C.ar      1 <0>        -0.1758
     16 C12        -0.0849   -1.5822   -4.4887 C.ar      1 <0>         0.1981
     17 C13         0.8589   -2.0775   -5.3855 C.ar      1 <0>         0.0452
     18 N2          1.9975   -2.5837   -4.9650 N.ar      1 <0>        -0.4030
     19 N3         -1.2864   -1.0411   -4.9578 N.pl3     1 <0>        -0.6185
     20 C14        -1.5211   -0.8785   -6.3995 C.3       1 <0>         0.1060
     21 C15        -2.8228   -1.6008   -6.7686 C.3       1 <0>         0.0803
     22 N4         -3.8733   -1.1852   -5.8287 N.am      1 <0>        -0.6071
     23 C16        -3.6386   -1.3478   -4.3871 C.3       1 <0>         0.0960
     24 C17        -2.3392   -0.6307   -4.0181 C.3       1 <0>         0.1036
     25 C18        -5.0310   -0.6638   -6.2807 C.2       1 <0>         0.5695
     26 O3         -5.8507   -0.2311   -5.4944 O.2       1 <0>        -0.5234
     27 C19        -5.3041   -0.6183   -7.7330 C.ar      1 <0>        -0.1876
     28 C20        -4.9647   -1.6995   -8.5554 C.ar      1 <0>        -0.0474
     29 C21        -5.2418   -1.6070   -9.9078 C.ar      1 <0>        -0.1762
     30 C22        -5.8396   -0.4603  -10.3996 C.ar      1 <0>         0.1240
     31 N5         -6.1484    0.5431   -9.6006 N.ar      1 <0>        -0.4834
     32 C23        -5.9095    0.5004   -8.3062 C.ar      1 <0>         0.1566
     33 N6          3.5754    0.3202    0.0055 N.2       1 <0>        -0.2502
     34 O4          4.2809    1.5493    0.0246 O.3       1 <0>         0.0831
     35 N7          3.3279    2.5978    0.0545 N.2       1 <0>        -0.2329
     36 H1         -1.2415    2.1800    0.0906 H         1 <0>         0.1687
     37 H2          0.6703    3.6644    0.0994 H         1 <0>         0.1665
     38 H3         -0.9769   -0.2548    0.0336 H         1 <0>         0.1726
     39 H4          3.8393   -3.2426   -0.8056 H         1 <0>         0.1989
     40 H5          4.3315   -3.6114   -3.3364 H         1 <0>         0.1669
     41 H6         -0.5406   -1.2524   -2.4103 H         1 <0>         0.1366
     42 H7          0.6544   -2.0400   -6.4453 H         1 <0>         0.1636
     43 H8         -1.6104    0.1812   -6.6383 H         1 <0>         0.0758
     44 H9         -0.6910   -1.3129   -6.9565 H         1 <0>         0.1012
     45 H10        -3.1140   -1.3335   -7.7844 H         1 <0>         0.1044
     46 H11        -2.6754   -2.6786   -6.6993 H         1 <0>         0.0821
     47 H12        -4.4687   -0.9134   -3.8300 H         1 <0>         0.1094
     48 H13        -3.5493   -2.4075   -4.1482 H         1 <0>         0.0787
     49 H14        -2.0493   -0.9015   -3.0029 H         1 <0>         0.0963
     50 H15        -2.4881    0.4471   -4.0835 H         1 <0>         0.0750
     51 H16        -4.4982   -2.5828   -8.1448 H         1 <0>         0.1429
     52 H17        -4.9938   -2.4212  -10.5726 H         1 <0>         0.1455
     53 H18        -6.0568   -0.3853  -11.4549 H         1 <0>         0.1640
     54 H19        -6.1810    1.3401   -7.6837 H         1 <0>         0.1649
@<TRIPOS>BOND
     1    1    6 ar
     2    1    2 ar
     3    1   36 1
     4    2    3 ar
     5    2   37 1
     6    3   35 2
     7    3    4 ar
     8    4    5 ar
     9    4   33 2
    10    5    6 ar
    11    5    7 1
    12    6   38 1
    13    7    8 2
    14    7    9 2
    15    7   10 1
    16   10   14 1
    17   10   11 1
    18   11   12 2
    19   11   39 1
    20   12   13 1
    21   12   40 1
    22   13   18 ar
    23   13   14 ar
    24   14   15 ar
    25   15   16 ar
    26   15   41 1
    27   16   17 ar
    28   16   19 1
    29   17   18 ar
    30   17   42 1
    31   19   24 1
    32   19   20 1
    33   20   21 1
    34   20   43 1
    35   20   44 1
    36   21   22 1
    37   21   45 1
    38   21   46 1
    39   22   23 1
    40   22   25 am
    41   23   24 1
    42   23   47 1
    43   23   48 1
    44   24   49 1
    45   24   50 1
    46   25   26 2
    47   25   27 1
    48   27   32 ar
    49   27   28 ar
    50   28   29 ar
    51   28   51 1
    52   29   30 ar
    53   29   52 1
    54   30   31 ar
    55   30   53 1
    56   31   32 ar
    57   32   54 1
    58   33   34 1
    59   34   35 1
@<TRIPOS>MOLECULE
CHEMBL503901
   60    65     0     0     0
SMALL
USER_CHARGES

@<TRIPOS>ATOM
      1 C1         -0.7527    1.5060   -0.8293 C.ar      1 <0>        -0.0572
      2 C2          0.0884    2.5097   -1.2637 C.ar      1 <0>        -0.1511
      3 C3          1.4598    2.3797   -1.1160 C.ar      1 <0>         0.1087
      4 C4          1.9931    1.2422   -0.5318 C.ar      1 <0>        -0.1524
      5 C5          1.1597    0.2333   -0.0944 C.ar      1 <0>        -0.0740
      6 C6         -0.2207    0.3600   -0.2406 C.ar      1 <0>        -0.0459
      7 C7         -1.1206   -0.7215    0.2284 C.2       1 <0>        -0.1643
      8 C8         -1.0877   -1.9537   -0.3502 C.2       1 <0>         0.1193
      9 N1         -1.9031   -2.9538    0.0652 N.pl3     1 <0>        -0.4057
     10 C9         -2.7915   -2.8096    1.0629 C.2       1 <0>         0.2119
     11 C10        -2.9250   -1.6111    1.7329 C.2       1 <0>        -0.3026
     12 C11        -2.0631   -0.4884    1.3317 C.2       1 <0>         0.4208
     13 O1         -2.1311    0.5948    1.8899 O.2       1 <0>        -0.4790
     14 C12        -3.9014   -1.4610    2.8251 C.2       1 <0>         0.5911
     15 O2         -4.4719   -2.4390    3.2695 O.2       1 <0>        -0.5260
     16 N2         -4.1628   -0.2399    3.3322 N.am      1 <0>        -0.6543
     17 C13        -5.0008   -0.1093    4.4463 C.ar      1 <0>         0.1847
     18 C14        -6.0017   -1.0442    4.6759 C.ar      1 <0>        -0.1285
     19 C15        -6.8288   -0.9155    5.7744 C.ar      1 <0>        -0.0676
     20 C16        -6.6607    0.1474    6.6492 C.ar      1 <0>         0.0260
     21 C17        -5.6598    1.0837    6.4210 C.ar      1 <0>         0.1127
     22 C18        -4.8275    0.9519    5.3249 C.ar      1 <0>        -0.1720
     23 F1         -5.4966    2.1197    7.2727 F         1 <0>        -0.1229
     24 O3         -7.4759    0.2736    7.7304 O.3       1 <0>        -0.2351
     25 C19        -8.4140    1.2535    7.7099 C.ar      1 <0>         0.2108
     26 C20        -8.6142    2.0298    6.5751 C.ar      1 <0>        -0.2833
     27 C21        -9.5808    3.0198    6.5932 C.ar      1 <0>         0.1778
     28 N3        -10.3178    3.2466    7.6608 N.ar      1 <0>        -0.5179
     29 C22       -10.1732    2.5382    8.7747 C.ar      1 <0>         0.3163
     30 C23        -9.2157    1.5104    8.8313 C.ar      1 <0>        -0.1771
     31 C24        -9.3151    0.9303   10.1713 C.2       1 <0>        -0.1746
     32 C25       -10.2825    1.6018   10.8153 C.2       1 <0>         0.0512
     33 N4        -10.7987    2.5724    9.9975 N.pl3     1 <0>        -0.5788
     34 H1        -11.5097    3.1853   10.2417 H         1 <0>         0.4230
     35 C26        -1.8158   -4.1955   -0.5761 C.ar      1 <0>         0.1451
     36 C27        -2.4873   -5.2951   -0.0570 C.ar      1 <0>        -0.1365
     37 C28        -2.4004   -6.5192   -0.6904 C.ar      1 <0>        -0.0439
     38 C29        -1.6447   -6.6522   -1.8417 C.ar      1 <0>        -0.0816
     39 C30        -0.9729   -5.5575   -2.3624 C.ar      1 <0>         0.1489
     40 C31        -1.0627   -4.3280   -1.7348 C.ar      1 <0>        -0.1646
     41 F2         -0.2352   -5.6897   -3.4865 F         1 <0>        -0.1117
     42 Cl1        -1.5373   -8.1927   -2.6349 Cl        1 <0>        -0.0286
     43 F3          2.2796    3.3649   -1.5432 F         1 <0>        -0.1361
     44 H2         -1.8218    1.6100   -0.9412 H         1 <0>         0.1343
     45 H3         -0.3229    3.3980   -1.7200 H         1 <0>         0.1405
     46 H4          3.0628    1.1449   -0.4189 H         1 <0>         0.1402
     47 H5          1.5763   -0.6532    0.3605 H         1 <0>         0.1344
     48 H6         -0.3961   -2.1385   -1.1589 H         1 <0>         0.1783
     49 H7         -3.4125   -3.6470    1.3451 H         1 <0>         0.1907
     50 H8         -3.7704    0.5484    2.9254 H         1 <0>         0.4271
     51 H9         -6.1335   -1.8721    3.9950 H         1 <0>         0.1665
     52 H10        -7.6072   -1.6428    5.9521 H         1 <0>         0.1484
     53 H11        -4.0462    1.6766    5.1494 H         1 <0>         0.1491
     54 H12        -8.0212    1.8625    5.6881 H         1 <0>         0.1387
     55 H13        -9.7344    3.6219    5.7098 H         1 <0>         0.1656
     56 H14        -8.7237    0.1174   10.5661 H         1 <0>         0.1532
     57 H15       -10.5999    1.4118   11.8299 H         1 <0>         0.1814
     58 H16        -3.0770   -5.1928    0.8420 H         1 <0>         0.1563
     59 H17        -2.9227   -7.3738   -0.2863 H         1 <0>         0.1613
     60 H18        -0.5437   -3.4734   -2.1430 H         1 <0>         0.1590
@<TRIPOS>BOND
     1    1    6 ar
     2    1    2 ar
     3    1   44 1
     4    2    3 ar
     5    2   45 1
     6    3    4 ar
     7    3   43 1
     8    4    5 ar
     9    4   46 1
    10    5    6 ar
    11    5   47 1
    12    6    7 1
    13    7   12 1
    14    7    8 2
    15    8    9 1
    16    8   48 1
    17    9   10 1
    18    9   35 1
    19   10   11 2
    20   10   49 1
    21   11   12 1
    22   11   14 1
    23   12   13 2
    24   14   15 2
    25   14   16 am
    26   16   17 1
    27   16   50 1
    28   17   22 ar
    29   17   18 ar
    30   18   19 ar
    31   18   51 1
    32   19   20 ar
    33   19   52 1
    34   20   21 ar
    35   20   24 1
    36   21   22 ar
    37   21   23 1
    38   22   53 1
    39   24   25 1
    40   25   30 ar
    41   25   26 ar
    42   26   27 ar
    43   26   54 1
    44   27   28 ar
    45   27   55 1
    46   28   29 ar
    47   29   33 1
    48   29   30 ar
    49   30   31 1
    50   31   32 2
    51   31   56 1
    52   32   33 1
    53   32   57 1
    54   33   34 1
    55   35   40 ar
    56   35   36 ar
    57   36   37 ar
    58   36   58 1
    59   37   38 ar
    60   37   59 1
    61   38   39 ar
    62   38   42 1
    63   39   40 ar
    64   39   41 1
    65   40   60 1
@<TRIPOS>MOLECULE
CHEMBL455386
   57    62     0     0     0
SMALL
USER_CHARGES

@<TRIPOS>ATOM
      1 C1         -1.1003    2.0007   -0.7130 C.ar      1 <0>        -0.0598
      2 C2         -0.4988    3.1877   -1.0775 C.ar      1 <0>        -0.1512
      3 C3          0.8669    3.3537   -0.9135 C.ar      1 <0>         0.1047
      4 C4          1.6347    2.3296   -0.3832 C.ar      1 <0>        -0.1526
      5 C5          1.0418    1.1391   -0.0159 C.ar      1 <0>        -0.0771
      6 C6         -0.3318    0.9676   -0.1791 C.ar      1 <0>        -0.0381
      7 C7         -0.9738   -0.3100    0.2146 C.2       1 <0>        -0.1849
      8 C8         -0.6682   -1.4702   -0.4298 C.2       1 <0>         0.1274
      9 N1         -1.2445   -2.6450   -0.0844 N.pl3     1 <0>        -0.4332
     10 C9         -2.1461   -2.7580    0.9023 C.2       1 <0>         0.2320
     11 C10        -2.5444   -1.6594    1.6359 C.2       1 <0>        -0.3253
     12 C11        -1.9494   -0.3532    1.3129 C.2       1 <0>         0.4209
     13 O1         -2.2571    0.6544    1.9288 O.2       1 <0>        -0.4940
     14 C12        -3.5348   -1.7919    2.7176 C.2       1 <0>         0.5925
     15 O2         -3.8752   -2.8957    3.0988 O.2       1 <0>        -0.5318
     16 N2         -4.0641   -0.6900    3.2853 N.am      1 <0>        -0.6579
     17 C13        -4.9051   -0.8111    4.3983 C.ar      1 <0>         0.1857
     18 C14        -5.7204   -1.9271    4.5346 C.ar      1 <0>        -0.1235
     19 C15        -6.5500   -2.0469    5.6321 C.ar      1 <0>        -0.0684
     20 C16        -6.5699   -1.0530    6.5992 C.ar      1 <0>         0.0262
     21 C17        -5.7546    0.0639    6.4646 C.ar      1 <0>         0.1101
     22 C18        -4.9199    0.1819    5.3687 C.ar      1 <0>        -0.1706
     23 F1         -5.7742    1.0323    7.4065 F         1 <0>        -0.1234
     24 O3         -7.3879   -1.1715    7.6792 O.3       1 <0>        -0.2347
     25 C19        -8.4632   -0.3479    7.7572 C.ar      1 <0>         0.2110
     26 C20        -8.7872    0.5081    6.7118 C.ar      1 <0>        -0.2830
     27 C21        -9.8918    1.3332    6.8290 C.ar      1 <0>         0.1779
     28 N3        -10.6464    1.3285    7.9084 N.ar      1 <0>        -0.5182
     29 C22       -10.3877    0.5332    8.9399 C.ar      1 <0>         0.3162
     30 C23        -9.2854   -0.3382    8.8929 C.ar      1 <0>        -0.1772
     31 C24        -9.2856   -1.0689   10.1611 C.2       1 <0>        -0.1746
     32 C25       -10.3381   -0.6249   10.8659 C.2       1 <0>         0.0510
     33 N4        -11.0019    0.3389   10.1535 N.pl3     1 <0>        -0.5789
     34 H1        -11.7955    0.8071   10.4566 H         1 <0>         0.4229
     35 C26        -0.8656   -3.8514   -0.8242 C.3       1 <0>         0.0265
     36 C27         0.2693   -3.7283   -1.8428 C.3       1 <0>        -0.1730
     37 C28        -1.1749   -3.8879   -2.3221 C.3       1 <0>        -0.1730
     38 F2          1.4517    4.5175   -1.2721 F         1 <0>        -0.1374
     39 H2         -2.1656    1.8738   -0.8371 H         1 <0>         0.1331
     40 H3         -1.0934    3.9886   -1.4916 H         1 <0>         0.1391
     41 H4          2.6990    2.4632   -0.2575 H         1 <0>         0.1388
     42 H5          1.6412    0.3412    0.3970 H         1 <0>         0.1329
     43 H6          0.0506   -1.4522   -1.2357 H         1 <0>         0.1723
     44 H7         -2.5683   -3.7265    1.1263 H         1 <0>         0.1835
     45 H8         -3.8625    0.1868    2.9229 H         1 <0>         0.4267
     46 H9         -5.7059   -2.7014    3.7818 H         1 <0>         0.1616
     47 H10        -7.1840   -2.9149    5.7373 H         1 <0>         0.1481
     48 H11        -4.2829    1.0479    5.2654 H         1 <0>         0.1488
     49 H12        -8.1828    0.5295    5.8170 H         1 <0>         0.1387
     50 H13       -10.1412    1.9978    6.0151 H         1 <0>         0.1656
     51 H14        -8.5752   -1.8213   10.4703 H         1 <0>         0.1531
     52 H15       -10.6148   -0.9693   11.8513 H         1 <0>         0.1813
     53 H16        -0.9463   -4.7870   -0.2707 H         1 <0>         0.1560
     54 H17         0.7341   -2.7497   -1.9626 H         1 <0>         0.1094
     55 H18         0.9357   -4.5830   -1.9595 H         1 <0>         0.1213
     56 H19        -1.4586   -4.8475   -2.7543 H         1 <0>         0.1190
     57 H20        -1.6602   -3.0143   -2.7573 H         1 <0>         0.1075
@<TRIPOS>BOND
     1    1    6 ar
     2    1    2 ar
     3    1   39 1
     4    2    3 ar
     5    2   40 1
     6    3    4 ar
     7    3   38 1
     8    4    5 ar
     9    4   41 1
    10    5    6 ar
    11    5   42 1
    12    6    7 1
    13    7   12 1
    14    7    8 2
    15    8    9 1
    16    8   43 1
    17    9   10 1
    18    9   35 1
    19   10   11 2
    20   10   44 1
    21   11   12 1
    22   11   14 1
    23   12   13 2
    24   14   15 2
    25   14   16 am
    26   16   17 1
    27   16   45 1
    28   17   22 ar
    29   17   18 ar
    30   18   19 ar
    31   18   46 1
    32   19   20 ar
    33   19   47 1
    34   20   21 ar
    35   20   24 1
    36   21   22 ar
    37   21   23 1
    38   22   48 1
    39   24   25 1
    40   25   30 ar
    41   25   26 ar
    42   26   27 ar
    43   26   49 1
    44   27   28 ar
    45   27   50 1
    46   28   29 ar
    47   29   33 1
    48   29   30 ar
    49   30   31 1
    50   31   32 2
    51   31   51 1
    52   32   33 1
    53   32   52 1
    54   33   34 1
    55   35   37 1
    56   35   36 1
    57   35   53 1
    58   36   37 1
    59   36   54 1
    60   36   55 1
    61   37   56 1
    62   37   57 1
@<TRIPOS>MOLECULE
CHEMBL401838
   61    65     0     0     0
SMALL
USER_CHARGES

@<TRIPOS>ATOM
      1 C1         10.1963    1.0446   -3.5399 C.ar      1 <0>        -0.1129
      2 C2          9.9467   -0.3141   -3.4915 C.ar      1 <0>        -0.1181
      3 C3          8.9201   -0.8006   -2.7038 C.ar      1 <0>        -0.1014
      4 C4          8.1435    0.0716   -1.9643 C.ar      1 <0>        -0.0803
      5 C5          8.3937    1.4303   -2.0120 C.ar      1 <0>        -0.1014
      6 C6          9.4194    1.9169   -2.8007 C.ar      1 <0>        -0.1181
      7 C7          7.0237   -0.4586   -1.1064 C.3       1 <0>        -0.0930
      8 C8          7.5486   -0.7629    0.2731 C.2       1 <0>         0.4822
      9 O1          8.7166   -0.5683    0.5339 O.2       1 <0>        -0.3881
     10 N1          6.7197   -1.2512    1.2170 N.am      1 <0>        -0.6411
     11 C9          7.1891   -1.5233    2.4507 C.2       1 <0>         0.5073
     12 S1          8.8383   -1.2486    2.8189 S.2       1 <0>        -0.4739
     13 N2          6.3602   -2.0117    3.3946 N.pl3     1 <0>        -0.6284
     14 C10         6.8672   -2.3895    4.6442 C.ar      1 <0>         0.1687
     15 C11         6.2202   -1.9893    5.8060 C.ar      1 <0>        -0.1144
     16 C12         6.7195   -2.3620    7.0385 C.ar      1 <0>        -0.0789
     17 C13         7.8676   -3.1360    7.1172 C.ar      1 <0>         0.0445
     18 C14         8.5161   -3.5373    5.9559 C.ar      1 <0>         0.1105
     19 C15         8.0135   -3.1692    4.7216 C.ar      1 <0>        -0.0997
     20 F1          9.6346   -4.2912    6.0325 F         1 <0>        -0.1183
     21 O2          8.3591   -3.5018    8.3314 O.3       1 <0>        -0.2372
     22 C16         9.3328   -2.7334    8.8825 C.ar      1 <0>         0.2055
     23 C17         9.8885   -1.6676    8.1820 C.ar      1 <0>        -0.2201
     24 C18        10.8800   -0.9183    8.7981 C.ar      1 <0>         0.1601
     25 N3         11.3067   -1.1782   10.0060 N.ar      1 <0>        -0.4657
     26 C19        10.8167   -2.1965   10.7510 C.ar      1 <0>         0.1382
     27 C20         9.8009   -2.9824   10.1635 C.ar      1 <0>        -0.2068
     28 S2          9.4208   -4.1782   11.4176 S.3       1 <0>         0.1307
     29 C21        10.5764   -3.6238   12.6596 C.2       1 <0>        -0.1760
     30 C22        11.1921   -2.5735   12.0526 C.2       1 <0>        -0.0514
     31 C23        10.8127   -4.1739   14.0039 C.2       1 <0>         0.6069
     32 O3         11.4053   -3.5135   14.8358 O.2       1 <0>        -0.5096
     33 N4         10.3725   -5.4096   14.3133 N.am      1 <0>        -0.6087
     34 C24         9.7631   -6.2747   13.2908 C.3       1 <0>         0.0612
     35 C25        10.4523   -7.6431   13.3420 C.3       1 <0>         0.0508
     36 O4         10.4272   -8.1328   14.6849 O.3       1 <0>        -0.3748
     37 C26        11.1414   -7.3187   15.6182 C.3       1 <0>         0.0459
     38 C27        10.4927   -5.9358   15.6823 C.3       1 <0>         0.0785
     39 H1         11.0012    1.4243   -4.1517 H         1 <0>         0.1233
     40 H2         10.5534   -0.9956   -4.0693 H         1 <0>         0.1239
     41 H3          8.7246   -1.8621   -2.6665 H         1 <0>         0.1202
     42 H4          7.7867    2.1118   -1.4344 H         1 <0>         0.1202
     43 H5          9.6146    2.9785   -2.8383 H         1 <0>         0.1239
     44 H6          6.2333    0.2888   -1.0377 H         1 <0>         0.1093
     45 H7          6.6245   -1.3696   -1.5523 H         1 <0>         0.1092
     46 H8          5.7852   -1.4069    1.0084 H         1 <0>         0.4125
     47 H9          5.4125   -2.1015    3.2084 H         1 <0>         0.4128
     48 H10         5.3265   -1.3860    5.7457 H         1 <0>         0.1461
     49 H11         6.2158   -2.0504    7.9416 H         1 <0>         0.1523
     50 H12         8.5145   -3.4844    3.8183 H         1 <0>         0.1581
     51 H13         9.5561   -1.4296    7.1824 H         1 <0>         0.1536
     52 H14        11.3159   -0.0898    8.2597 H         1 <0>         0.1716
     53 H15        11.9598   -2.0218   12.5747 H         1 <0>         0.1613
     54 H16         8.6990   -6.3918   13.4957 H         1 <0>         0.0910
     55 H17         9.9010   -5.8309   12.3049 H         1 <0>         0.0985
     56 H18         9.9259   -8.3405   12.6903 H         1 <0>         0.1139
     57 H19        11.4857   -7.5429   13.0102 H         1 <0>         0.0611
     58 H20        11.1108   -7.7826   16.6040 H         1 <0>         0.1130
     59 H21        12.1774   -7.2173   15.2947 H         1 <0>         0.0596
     60 H22        11.1134   -5.2677   16.2793 H         1 <0>         0.1081
     61 H23         9.5032   -6.0182   16.1321 H         1 <0>         0.0841
@<TRIPOS>BOND
     1    1    6 ar
     2    1    2 ar
     3    1   39 1
     4    2    3 ar
     5    2   40 1
     6    3    4 ar
     7    3   41 1
     8    4    5 ar
     9    4    7 1
    10    5    6 ar
    11    5   42 1
    12    6   43 1
    13    7    8 1
    14    7   44 1
    15    7   45 1
    16    8    9 2
    17    8   10 am
    18   10   11 1
    19   10   46 1
    20   11   12 2
    21   11   13 1
    22   13   14 1
    23   13   47 1
    24   14   19 ar
    25   14   15 ar
    26   15   16 ar
    27   15   48 1
    28   16   17 ar
    29   16   49 1
    30   17   18 ar
    31   17   21 1
    32   18   19 ar
    33   18   20 1
    34   19   50 1
    35   21   22 1
    36   22   27 ar
    37   22   23 ar
    38   23   24 ar
    39   23   51 1
    40   24   25 ar
    41   24   52 1
    42   25   26 ar
    43   26   30 1
    44   26   27 ar
    45   27   28 1
    46   28   29 1
    47   29   30 2
    48   29   31 1
    49   30   53 1
    50   31   32 2
    51   31   33 am
    52   33   38 1
    53   33   34 1
    54   34   35 1
    55   34   54 1
    56   34   55 1
    57   35   36 1
    58   35   56 1
    59   35   57 1
    60   36   37 1
    61   37   38 1
    62   37   58 1
    63   37   59 1
    64   38   60 1
    65   38   61 1
@<TRIPOS>MOLECULE
CHEMBL438696
   68    71     0     0     0
SMALL
USER_CHARGES

@<TRIPOS>ATOM
      1 C1         -0.1227    1.5203    0.0072 C.3       1 <0>        -0.0842
      2 C2         -0.0047    0.0180   -0.0016 C.2       1 <0>        -0.0753
      3 C3          0.0426   -0.8061   -1.1299 C.2       1 <0>         0.0501
      4 C4          0.1511   -2.0956   -0.7022 C.2       1 <0>        -0.0070
      5 N1          0.1736   -2.1095    0.6510 N.pl3     1 <0>        -0.2268
      6 C5          0.0835   -0.8068    1.1045 C.2       1 <0>        -0.0614
      7 C6          0.0939   -0.5752    2.4968 C.2       1 <0>         0.4671
      8 N2          0.1919   -1.6027    3.3213 N.2       1 <0>        -0.5940
      9 C7          0.2813   -2.8533    2.8718 C.2       1 <0>         0.3339
     10 N3          0.2699   -3.1384    1.5985 N.2       1 <0>        -0.3296
     11 O1          0.0048    0.6854    2.9816 O.3       1 <0>        -0.2124
     12 C8         -0.0863    0.8463    4.3290 C.ar      1 <0>         0.0267
     13 C9         -1.3303    0.9612    4.9310 C.ar      1 <0>        -0.0567
     14 C10        -1.4238    1.1246    6.2992 C.ar      1 <0>        -0.1166
     15 C11        -0.2722    1.1740    7.0734 C.ar      1 <0>         0.2076
     16 C12         0.9738    1.0587    6.4720 C.ar      1 <0>        -0.1707
     17 C13         1.0668    0.8898    5.1028 C.ar      1 <0>         0.1399
     18 F1          2.2785    0.7722    4.5172 F         1 <0>        -0.1235
     19 N4         -0.3676    1.3408    8.4611 N.am      1 <0>        -0.6788
     20 C14        -1.3867    0.7768    9.1391 C.2       1 <0>         0.6970
     21 O2         -2.2687    0.1954    8.5379 O.2       1 <0>        -0.5052
     22 N5         -1.4279    0.8575   10.4838 N.am      1 <0>        -0.6888
     23 C15        -2.4471    0.2935   11.1618 C.2       1 <0>         0.5161
     24 O3         -3.3268   -0.2864   10.5621 O.2       1 <0>        -0.4483
     25 C16        -2.4932    0.3837   12.6654 C.3       1 <0>        -0.0946
     26 C17        -3.7241   -0.3218   13.1735 C.ar      1 <0>        -0.0921
     27 C18        -4.9087    0.3755   13.3207 C.ar      1 <0>        -0.0723
     28 C19        -6.0382   -0.2706   13.7861 C.ar      1 <0>        -0.1520
     29 C20        -5.9832   -1.6168   14.1050 C.ar      1 <0>         0.1055
     30 C21        -4.7962   -2.3142   13.9572 C.ar      1 <0>        -0.1521
     31 C22        -3.6693   -1.6672   13.4867 C.ar      1 <0>        -0.0725
     32 F2         -7.0866   -2.2493   14.5605 F         1 <0>        -0.1373
     33 O4         -0.0112   -0.3937   -2.4263 O.3       1 <0>        -0.2870
     34 C23         0.0530   -1.4064   -3.4325 C.3       1 <0>         0.0614
     35 C24        -0.0210   -0.7565   -4.8157 C.3       1 <0>        -0.1506
     36 C25         0.0477   -1.8408   -5.8929 C.3       1 <0>        -0.0076
     37 N6         -0.0233   -1.2168   -7.2209 N.4       1 <0>        -0.3859
     38 C26         0.1626   -2.2436   -8.2549 C.3       1 <0>        -0.0473
     39 C27        -1.3360   -0.5804   -7.3933 C.3       1 <0>        -0.0546
     40 H1          0.8731    1.9631   -0.0123 H         1 <0>         0.0749
     41 H2         -0.6823    1.8460   -0.8697 H         1 <0>         0.0738
     42 H3         -0.6442    1.8385    0.9098 H         1 <0>         0.0752
     43 H4          0.2094   -2.9654   -1.3398 H         1 <0>         0.1810
     44 H5          0.3599   -3.6597    3.5860 H         1 <0>         0.2288
     45 H6         -2.2265    0.9232    4.3295 H         1 <0>         0.1467
     46 H7         -2.3931    1.2144    6.7671 H         1 <0>         0.1588
     47 H8          1.8698    1.0970    7.0738 H         1 <0>         0.1514
     48 H9          0.2999    1.8621    8.9340 H         1 <0>         0.4155
     49 H10        -0.7241    1.3214   10.9637 H         1 <0>         0.4142
     50 H11        -1.6047   -0.0881   13.0851 H         1 <0>         0.1149
     51 H12        -2.5247    1.4310   12.9658 H         1 <0>         0.1152
     52 H13        -4.9513    1.4257   13.0722 H         1 <0>         0.1324
     53 H14        -6.9634    0.2745   13.9013 H         1 <0>         0.1381
     54 H15        -4.7520   -3.3642   14.2060 H         1 <0>         0.1380
     55 H16        -2.7445   -2.2121   13.3671 H         1 <0>         0.1322
     56 H17         0.9909   -1.9536   -3.3379 H         1 <0>         0.0712
     57 H18        -0.7832   -2.0946   -3.3092 H         1 <0>         0.0709
     58 H19        -0.9589   -0.2093   -4.9103 H         1 <0>         0.1001
     59 H20         0.8152   -0.0683   -4.9390 H         1 <0>         0.1001
     60 H21         0.9856   -2.3880   -5.7983 H         1 <0>         0.1350
     61 H22        -0.7885   -2.5290   -5.7696 H         1 <0>         0.1338
     62 H23        -0.6207   -2.9961   -8.1647 H         1 <0>         0.1227
     63 H24         0.1099   -1.7806   -9.2403 H         1 <0>         0.1261
     64 H25         1.1366   -2.7158   -8.1270 H         1 <0>         0.1242
     65 H26        -1.4740    0.1815   -6.6261 H         1 <0>         0.1261
     66 H27        -1.3888   -0.1174   -8.3787 H         1 <0>         0.1261
     67 H28        -2.1194   -1.3330   -7.3031 H         1 <0>         0.1234
     68 H29         0.7018   -0.5202   -7.3044 H         1 <0>         0.4288
@<TRIPOS>BOND
     1    1    2 1
     2    1   40 1
     3    1   41 1
     4    1   42 1
     5    2    6 2
     6    2    3 1
     7    3    4 2
     8    3   33 1
     9    4    5 1
    10    4   43 1
    11    5   10 1
    12    5    6 1
    13    6    7 1
    14    7    8 2
    15    7   11 1
    16    8    9 1
    17    9   10 2
    18    9   44 1
    19   11   12 1
    20   12   17 ar
    21   12   13 ar
    22   13   14 ar
    23   13   45 1
    24   14   15 ar
    25   14   46 1
    26   15   16 ar
    27   15   19 1
    28   16   17 ar
    29   16   47 1
    30   17   18 1
    31   19   20 am
    32   19   48 1
    33   20   21 2
    34   20   22 am
    35   22   23 am
    36   22   49 1
    37   23   24 2
    38   23   25 1
    39   25   26 1
    40   25   50 1
    41   25   51 1
    42   26   31 ar
    43   26   27 ar
    44   27   28 ar
    45   27   52 1
    46   28   29 ar
    47   28   53 1
    48   29   30 ar
    49   29   32 1
    50   30   31 ar
    51   30   54 1
    52   31   55 1
    53   33   34 1
    54   34   35 1
    55   34   56 1
    56   34   57 1
    57   35   36 1
    58   35   58 1
    59   35   59 1
    60   36   37 1
    61   36   60 1
    62   36   61 1
    63   37   38 1
    64   37   39 1
    65   37   68 1
    66   38   62 1
    67   38   63 1
    68   38   64 1
    69   39   65 1
    70   39   66 1
    71   39   67 1
@<TRIPOS>MOLECULE
CHEMBL413996
   74    78     0     0     0
SMALL
USER_CHARGES

@<TRIPOS>ATOM
      1 C1          0.3082    1.7747   -0.2671 C.3       1 <0>        -0.0798
      2 C2          0.2543    0.2694   -0.2203 C.2       1 <0>        -0.0809
      3 C3          0.2096   -0.5959   -1.3174 C.2       1 <0>         0.0563
      4 C4          0.1696   -1.8727   -0.8421 C.2       1 <0>        -0.0114
      5 N1          0.1876   -1.8389    0.5108 N.pl3     1 <0>        -0.2273
      6 C5          0.2456   -0.5185    0.9158 C.2       1 <0>        -0.0628
      7 C6          0.2793   -0.2381    2.2987 C.2       1 <0>         0.4652
      8 N2          0.2578   -1.2389    3.1608 N.2       1 <0>        -0.5954
      9 C7          0.2051   -2.5074    2.7580 C.2       1 <0>         0.3307
     10 N3          0.1639   -2.8362    1.4959 N.2       1 <0>        -0.3286
     11 O1          0.3335    1.0414    2.7366 O.3       1 <0>        -0.2137
     12 C8          0.2587    1.2614    4.0766 C.ar      1 <0>         0.0285
     13 C9         -0.9676    1.5240    4.6687 C.ar      1 <0>        -0.0570
     14 C10        -1.0445    1.7476    6.0294 C.ar      1 <0>        -0.1163
     15 C11         0.1060    1.7096    6.8060 C.ar      1 <0>         0.2068
     16 C12         1.3341    1.4464    6.2145 C.ar      1 <0>        -0.1710
     17 C13         1.4100    1.2174    4.8530 C.ar      1 <0>         0.1388
     18 F1          2.6038    0.9561    4.2772 F         1 <0>        -0.1244
     19 N4          0.0275    1.9373    8.1861 N.am      1 <0>        -0.6788
     20 C14        -1.0443    1.5063    8.8803 C.2       1 <0>         0.6967
     21 O2         -1.9814    0.9972    8.2973 O.2       1 <0>        -0.5046
     22 N5         -1.0769    1.6397   10.2211 N.am      1 <0>        -0.6889
     23 C15        -2.1487    1.2087   10.9153 C.2       1 <0>         0.5159
     24 O3         -3.0834    0.7009   10.3337 O.2       1 <0>        -0.4479
     25 C16        -2.1851    1.3579   12.4144 C.3       1 <0>        -0.0944
     26 C17        -3.4821    0.8017   12.9432 C.ar      1 <0>        -0.0922
     27 C18        -4.5886    1.6221   13.0606 C.ar      1 <0>        -0.0724
     28 C19        -5.7786    1.1131   13.5450 C.ar      1 <0>        -0.1520
     29 C20        -5.8624   -0.2191   13.9127 C.ar      1 <0>         0.1056
     30 C21        -4.7535   -1.0398   13.7947 C.ar      1 <0>        -0.1521
     31 C22        -3.5660   -0.5298   13.3051 C.ar      1 <0>        -0.0725
     32 F2         -7.0251   -0.7177   14.3868 F         1 <0>        -0.1372
     33 O4          0.2059   -0.2283   -2.6283 O.3       1 <0>        -0.2761
     34 C23         0.1564   -1.2783   -3.5963 C.3       1 <0>         0.0610
     35 C24         0.1598   -0.6759   -5.0028 C.3       1 <0>         0.0575
     36 N6          1.4249    0.0362   -5.2273 N.3       1 <0>        -0.5322
     37 C25         1.3016    0.9917   -6.3373 C.3       1 <0>         0.0269
     38 C26         2.6190    1.7532   -6.4996 C.3       1 <0>        -0.0027
     39 N7          3.7050    0.8015   -6.7684 N.4       1 <0>        -0.3881
     40 C27         3.8320   -0.1306   -5.6403 C.3       1 <0>        -0.0020
     41 C28         2.5247   -0.9078   -5.4709 C.3       1 <0>         0.0212
     42 C29         4.9662    1.5344   -6.9420 C.3       1 <0>        -0.0457
     43 H1          1.3480    2.1003   -0.2965 H         1 <0>         0.0704
     44 H2         -0.2088    2.1293   -1.1588 H         1 <0>         0.0735
     45 H3         -0.1756    2.1835    0.6200 H         1 <0>         0.0726
     46 H4          0.1297   -2.7664   -1.4471 H         1 <0>         0.1799
     47 H5          0.1898   -3.2904    3.5016 H         1 <0>         0.2274
     48 H6         -1.8628    1.5541    4.0654 H         1 <0>         0.1467
     49 H7         -1.9999    1.9523    6.4896 H         1 <0>         0.1588
     50 H8          2.2292    1.4168    6.8181 H         1 <0>         0.1509
     51 H9          0.7445    2.4052    8.6420 H         1 <0>         0.4152
     52 H10        -0.3290    2.0460   10.6863 H         1 <0>         0.4140
     53 H11        -1.3499    0.8129   12.8542 H         1 <0>         0.1148
     54 H12        -2.1086    2.4132   12.6765 H         1 <0>         0.1150
     55 H13        -4.5229    2.6614   12.7740 H         1 <0>         0.1323
     56 H14        -6.6428    1.7543   13.6369 H         1 <0>         0.1382
     57 H15        -4.8177   -2.0791   14.0815 H         1 <0>         0.1381
     58 H16        -2.7022   -1.1709   13.2088 H         1 <0>         0.1322
     59 H17         1.0256   -1.9249   -3.4759 H         1 <0>         0.0606
     60 H18        -0.7531   -1.8618   -3.4532 H         1 <0>         0.0737
     61 H19         0.0556   -1.4725   -5.7395 H         1 <0>         0.0717
     62 H20        -0.6721    0.0214   -5.1014 H         1 <0>         0.1007
     63 H21         1.0773    0.4528   -7.2578 H         1 <0>         0.0601
     64 H22         0.4981    1.6964   -6.1230 H         1 <0>         0.1255
     65 H23         2.5343    2.4524   -7.3315 H         1 <0>         0.1358
     66 H24         2.8360    2.3029   -5.5837 H         1 <0>         0.1390
     67 H25         4.6466   -0.8280   -5.8353 H         1 <0>         0.1351
     68 H26         4.0428    0.4287   -4.7289 H         1 <0>         0.1387
     69 H27         2.6136   -1.5889   -4.6246 H         1 <0>         0.1219
     70 H28         2.3205   -1.4780   -6.3772 H         1 <0>         0.0613
     71 H29         5.1895    2.0935   -6.0334 H         1 <0>         0.1234
     72 H30         5.7722    0.8283   -7.1415 H         1 <0>         0.1237
     73 H31         4.8726    2.2252   -7.7800 H         1 <0>         0.1243
     74 H32         3.4983    0.2846   -7.6099 H         1 <0>         0.4219
@<TRIPOS>BOND
     1    1    2 1
     2    1   43 1
     3    1   44 1
     4    1   45 1
     5    2    6 2
     6    2    3 1
     7    3    4 2
     8    3   33 1
     9    4    5 1
    10    4   46 1
    11    5   10 1
    12    5    6 1
    13    6    7 1
    14    7    8 2
    15    7   11 1
    16    8    9 1
    17    9   10 2
    18    9   47 1
    19   11   12 1
    20   12   17 ar
    21   12   13 ar
    22   13   14 ar
    23   13   48 1
    24   14   15 ar
    25   14   49 1
    26   15   16 ar
    27   15   19 1
    28   16   17 ar
    29   16   50 1
    30   17   18 1
    31   19   20 am
    32   19   51 1
    33   20   21 2
    34   20   22 am
    35   22   23 am
    36   22   52 1
    37   23   24 2
    38   23   25 1
    39   25   26 1
    40   25   53 1
    41   25   54 1
    42   26   31 ar
    43   26   27 ar
    44   27   28 ar
    45   27   55 1
    46   28   29 ar
    47   28   56 1
    48   29   30 ar
    49   29   32 1
    50   30   31 ar
    51   30   57 1
    52   31   58 1
    53   33   34 1
    54   34   35 1
    55   34   59 1
    56   34   60 1
    57   35   36 1
    58   35   61 1
    59   35   62 1
    60   36   41 1
    61   36   37 1
    62   37   38 1
    63   37   63 1
    64   37   64 1
    65   38   39 1
    66   38   65 1
    67   38   66 1
    68   39   40 1
    69   39   42 1
    70   39   74 1
    71   40   41 1
    72   40   67 1
    73   40   68 1
    74   41   69 1
    75   41   70 1
    76   42   71 1
    77   42   72 1
    78   42   73 1
@<TRIPOS>MOLECULE
CHEMBL254280
   68    71     0     0     0
SMALL
USER_CHARGES

@<TRIPOS>ATOM
      1 C1          0.0090    1.6624    0.0110 C.3       1 <0>        -0.0840
      2 C2          0.1055    0.1588   -0.0176 C.2       1 <0>        -0.0757
      3 C3          0.1567   -0.6500   -1.1567 C.2       1 <0>         0.0499
      4 C4          0.2402   -1.9469   -0.7459 C.2       1 <0>        -0.0074
      5 N1          0.2433   -1.9801    0.6072 N.pl3     1 <0>        -0.2268
      6 C5          0.1664   -0.6826    1.0778 C.2       1 <0>        -0.0614
      7 C6          0.1609   -0.4707    2.4733 C.2       1 <0>         0.4663
      8 N2          0.2324   -1.5110    3.2844 N.2       1 <0>        -0.5936
      9 C7          0.3096   -2.7564    2.8185 C.2       1 <0>         0.3339
     10 N3          0.3109   -3.0235    1.5412 N.2       1 <0>        -0.3302
     11 O1          0.0837    0.7841    2.9747 O.3       1 <0>        -0.2119
     12 C8         -0.0229    0.9275    4.3229 C.ar      1 <0>         0.0185
     13 C9         -1.2747    0.9908    4.9166 C.ar      1 <0>        -0.0540
     14 C10        -1.3839    1.1364    6.2856 C.ar      1 <0>        -0.1487
     15 C11        -0.2404    1.2196    7.0690 C.ar      1 <0>         0.2014
     16 C12         1.0133    1.1559    6.4759 C.ar      1 <0>        -0.1599
     17 C13         1.1222    1.0048    5.1059 C.ar      1 <0>         0.1445
     18 F1          2.3417    0.9375    4.5282 F         1 <0>        -0.1231
     19 N4         -0.3517    1.3682    8.4574 N.am      1 <0>        -0.6726
     20 C14         0.6377    0.9342    9.2630 C.2       1 <0>         0.5124
     21 O2          1.5726    0.3176    8.7973 O.2       1 <0>        -0.4609
     22 C15         0.5825    1.2151   10.7426 C.3       1 <0>        -0.1631
     23 C16         1.7986    0.6276   11.4112 C.2       1 <0>         0.5114
     24 O3          2.6285    0.0387   10.7512 O.2       1 <0>        -0.4710
     25 N5          1.9640    0.7565   12.7425 N.am      1 <0>        -0.6743
     26 C17         3.1461    0.3121   13.3474 C.ar      1 <0>         0.1347
     27 C18         3.1103   -0.2406   14.6207 C.ar      1 <0>        -0.1141
     28 C19         4.2774   -0.6783   15.2156 C.ar      1 <0>        -0.1334
     29 C20         5.4827   -0.5658   14.5433 C.ar      1 <0>         0.0867
     30 C21         5.5206   -0.0149   13.2735 C.ar      1 <0>        -0.1329
     31 C22         4.3549    0.4183   12.6726 C.ar      1 <0>        -0.0906
     32 F2          6.6234   -0.9937   15.1273 F         1 <0>        -0.1376
     33 O4          0.1277   -0.2187   -2.4477 O.3       1 <0>        -0.2870
     34 C23         0.1913   -1.2180   -3.4672 C.3       1 <0>         0.0614
     35 C24         0.1468   -0.5478   -4.8419 C.3       1 <0>        -0.1506
     36 C25         0.2149   -1.6177   -5.9334 C.3       1 <0>        -0.0076
     37 N6          0.1722   -0.9742   -7.2533 N.4       1 <0>        -0.3859
     38 C26         0.3577   -1.9890   -8.2991 C.3       1 <0>        -0.0473
     39 C27        -1.1283   -0.3156   -7.4351 C.3       1 <0>        -0.0544
     40 H1          1.0113    2.0909    0.0115 H         1 <0>         0.0750
     41 H2         -0.5335    2.0084   -0.8688 H         1 <0>         0.0736
     42 H3         -0.5205    1.9755    0.9108 H         1 <0>         0.0750
     43 H4          0.2946   -2.8084   -1.3949 H         1 <0>         0.1808
     44 H5          0.3666   -3.5738    3.5221 H         1 <0>         0.2287
     45 H6         -2.1645    0.9266    4.3080 H         1 <0>         0.1456
     46 H7         -2.3591    1.1860    6.7470 H         1 <0>         0.1457
     47 H8          1.9030    1.2205    7.0848 H         1 <0>         0.1656
     48 H9         -1.1410    1.7834    8.8389 H         1 <0>         0.4181
     49 H10         0.5621    2.2924   10.9074 H         1 <0>         0.1351
     50 H11        -0.3166    0.7659   11.1644 H         1 <0>         0.1329
     51 H12         1.2642    1.1571   13.2817 H         1 <0>         0.4129
     52 H13         2.1705   -0.3279   15.1456 H         1 <0>         0.1374
     53 H14         4.2499   -1.1083   16.2060 H         1 <0>         0.1416
     54 H15         6.4618    0.0723   12.7509 H         1 <0>         0.1403
     55 H16         4.3843    0.8439   11.6804 H         1 <0>         0.1425
     56 H17         1.1195   -1.7806   -3.3672 H         1 <0>         0.0713
     57 H18        -0.6568   -1.8952   -3.3656 H         1 <0>         0.0708
     58 H19        -0.7814    0.0148   -4.9419 H         1 <0>         0.1000
     59 H20         0.9949    0.1294   -4.9435 H         1 <0>         0.1001
     60 H21         1.1431   -2.1803   -5.8334 H         1 <0>         0.1351
     61 H22        -0.6332   -2.2949   -5.8318 H         1 <0>         0.1338
     62 H23        -0.4380   -2.7309   -8.2307 H         1 <0>         0.1227
     63 H24         0.3260   -1.5115   -9.2784 H         1 <0>         0.1261
     64 H25         1.3226   -2.4776   -8.1641 H         1 <0>         0.1243
     65 H26        -1.2659    0.4373   -6.6591 H         1 <0>         0.1260
     66 H27        -1.1600    0.1619   -8.4144 H         1 <0>         0.1260
     67 H28        -1.9239   -1.0575   -7.3667 H         1 <0>         0.1233
     68 H29         0.9087   -0.2874   -7.3166 H         1 <0>         0.4289
@<TRIPOS>BOND
     1    1    2 1
     2    1   40 1
     3    1   41 1
     4    1   42 1
     5    2    6 2
     6    2    3 1
     7    3    4 2
     8    3   33 1
     9    4    5 1
    10    4   43 1
    11    5   10 1
    12    5    6 1
    13    6    7 1
    14    7    8 2
    15    7   11 1
    16    8    9 1
    17    9   10 2
    18    9   44 1
    19   11   12 1
    20   12   17 ar
    21   12   13 ar
    22   13   14 ar
    23   13   45 1
    24   14   15 ar
    25   14   46 1
    26   15   16 ar
    27   15   19 1
    28   16   17 ar
    29   16   47 1
    30   17   18 1
    31   19   20 am
    32   19   48 1
    33   20   21 2
    34   20   22 1
    35   22   23 1
    36   22   49 1
    37   22   50 1
    38   23   24 2
    39   23   25 am
    40   25   26 1
    41   25   51 1
    42   26   31 ar
    43   26   27 ar
    44   27   28 ar
    45   27   52 1
    46   28   29 ar
    47   28   53 1
    48   29   30 ar
    49   29   32 1
    50   30   31 ar
    51   30   54 1
    52   31   55 1
    53   33   34 1
    54   34   35 1
    55   34   56 1
    56   34   57 1
    57   35   36 1
    58   35   58 1
    59   35   59 1
    60   36   37 1
    61   36   60 1
    62   36   61 1
    63   37   38 1
    64   37   39 1
    65   37   68 1
    66   38   62 1
    67   38   63 1
    68   38   64 1
    69   39   65 1
    70   39   66 1
    71   39   67 1
@<TRIPOS>MOLECULE
CHEMBL252415
   64    68     0     0     0
SMALL
USER_CHARGES

@<TRIPOS>ATOM
      1 C1         -7.0271    0.0723    2.4311 C.ar      1 <0>        -0.0727
      2 C2         -7.8947    0.9644    3.0323 C.ar      1 <0>        -0.1522
      3 C3         -7.6504    2.3251    2.9560 C.ar      1 <0>         0.1060
      4 C4         -6.5370    2.7905    2.2771 C.ar      1 <0>        -0.1518
      5 C5         -5.6708    1.8966    1.6767 C.ar      1 <0>        -0.0724
      6 C6         -5.9157    0.5382    1.7536 C.ar      1 <0>        -0.0927
      7 C7         -4.9704   -0.4356    1.0985 C.3       1 <0>        -0.0948
      8 C8         -5.4150   -0.6911   -0.3186 C.2       1 <0>         0.5170
      9 O1         -6.4018   -0.1373   -0.7535 O.2       1 <0>        -0.4493
     10 N1         -4.7155   -1.5354   -1.1025 N.am      1 <0>        -0.6886
     11 C9         -5.1131   -1.7639   -2.3698 C.2       1 <0>         0.6975
     12 O2         -6.1024   -1.2086   -2.8058 O.2       1 <0>        -0.5091
     13 N2         -4.4135   -2.6081   -3.1537 N.am      1 <0>        -0.6791
     14 C10        -4.8801   -2.9214   -4.4370 C.ar      1 <0>         0.2081
     15 C11        -4.6965   -4.1987   -4.9499 C.ar      1 <0>        -0.1394
     16 C12        -5.1562   -4.5081   -6.2149 C.ar      1 <0>        -0.0596
     17 C13        -5.8016   -3.5435   -6.9742 C.ar      1 <0>         0.0267
     18 C14        -5.9865   -2.2652   -6.4623 C.ar      1 <0>         0.1391
     19 C15        -5.5310   -1.9566   -5.1937 C.ar      1 <0>        -0.1484
     20 F1         -6.6152   -1.3255   -7.2018 F         1 <0>        -0.1259
     21 O3         -6.2532   -3.8488   -8.2202 O.3       1 <0>        -0.2109
     22 C16        -5.4492   -3.5719   -9.2729 C.2       1 <0>         0.4667
     23 C17        -5.8231   -3.9587  -10.5782 C.2       1 <0>        -0.0644
     24 C18        -6.9178   -4.6174  -11.1048 C.2       1 <0>        -0.0846
     25 C19        -6.7125   -4.7055  -12.4823 C.2       1 <0>        -0.1779
     26 C20        -5.5228   -4.1124  -12.7669 C.2       1 <0>         0.0691
     27 N3         -4.9736   -3.6563  -11.6261 N.pl3     1 <0>        -0.2354
     28 N4         -3.7799   -2.9791  -11.3395 N.2       1 <0>        -0.3299
     29 C21        -3.4952   -2.6512  -10.1093 C.2       1 <0>         0.3328
     30 N5         -4.3081   -2.9317   -9.0918 N.2       1 <0>        -0.6000
     31 C22        -8.1053   -5.1408  -10.3386 C.3       1 <0>         0.1291
     32 N6         -9.0310   -4.0358  -10.0554 N.3       1 <0>        -0.5327
     33 C23        -9.6237   -3.5145  -11.2952 C.3       1 <0>         0.0227
     34 C24       -10.5332   -2.3295  -10.9632 C.3       1 <0>        -0.0033
     35 N7        -11.5898   -2.7663  -10.0410 N.4       1 <0>        -0.5075
     36 C25       -10.9834   -3.2613   -8.7981 C.3       1 <0>        -0.0036
     37 C26       -10.0776   -4.4541   -9.1121 C.3       1 <0>         0.0267
     38 F2         -8.4981    3.1981    3.5429 F         1 <0>        -0.1368
     39 H1         -7.2150   -0.9893    2.4944 H         1 <0>         0.1321
     40 H2         -8.7630    0.6003    3.5613 H         1 <0>         0.1382
     41 H3         -6.3457    3.8517    2.2166 H         1 <0>         0.1385
     42 H4         -4.8025    2.2594    1.1468 H         1 <0>         0.1324
     43 H5         -3.9638   -0.0175    1.0937 H         1 <0>         0.1157
     44 H6         -4.9718   -1.3732    1.6543 H         1 <0>         0.1155
     45 H7         -3.9259   -1.9785   -0.7545 H         1 <0>         0.4151
     46 H8         -3.5871   -2.9988   -2.8293 H         1 <0>         0.4174
     47 H9         -4.1937   -4.9504   -4.3595 H         1 <0>         0.1472
     48 H10        -5.0128   -5.5016   -6.6133 H         1 <0>         0.1467
     49 H11        -5.6776   -0.9642   -4.7936 H         1 <0>         0.1622
     50 H12        -7.3807   -5.1639  -13.1962 H         1 <0>         0.1619
     51 H13        -5.0880   -4.0215  -13.7513 H         1 <0>         0.1857
     52 H14        -2.5707   -2.1299   -9.9095 H         1 <0>         0.2267
     53 H15        -8.6155   -5.8991  -10.9325 H         1 <0>         0.0627
     54 H16        -7.7671   -5.5808   -9.4005 H         1 <0>         0.0989
     55 H17        -8.8308   -3.1871  -11.9678 H         1 <0>         0.1245
     56 H18       -10.2087   -4.2983  -11.7763 H         1 <0>         0.0625
     57 H19        -9.9453   -1.5403  -10.4945 H         1 <0>         0.1373
     58 H20       -10.9850   -1.9502  -11.8798 H         1 <0>         0.1375
     59 H21       -12.1966   -1.9877   -9.8321 H         1 <0>         0.4334
     60 H22       -10.3931   -2.4674   -8.3405 H         1 <0>         0.1393
     61 H23       -11.7689   -3.5730   -8.1097 H         1 <0>         0.1385
     62 H24       -10.6700   -5.2534   -9.5573 H         1 <0>         0.0620
     63 H25        -9.6159   -4.8123   -8.1920 H         1 <0>         0.1241
     64 H26       -12.1266   -3.5048  -10.4705 H         1 <0>         0.4254
@<TRIPOS>BOND
     1    1    6 ar
     2    1    2 ar
     3    1   39 1
     4    2    3 ar
     5    2   40 1
     6    3    4 ar
     7    3   38 1
     8    4    5 ar
     9    4   41 1
    10    5    6 ar
    11    5   42 1
    12    6    7 1
    13    7    8 1
    14    7   43 1
    15    7   44 1
    16    8    9 2
    17    8   10 am
    18   10   11 am
    19   10   45 1
    20   11   12 2
    21   11   13 am
    22   13   14 1
    23   13   46 1
    24   14   19 ar
    25   14   15 ar
    26   15   16 ar
    27   15   47 1
    28   16   17 ar
    29   16   48 1
    30   17   18 ar
    31   17   21 1
    32   18   19 ar
    33   18   20 1
    34   19   49 1
    35   21   22 1
    36   22   30 2
    37   22   23 1
    38   23   27 1
    39   23   24 2
    40   24   25 1
    41   24   31 1
    42   25   26 2
    43   25   50 1
    44   26   27 1
    45   26   51 1
    46   27   28 1
    47   28   29 2
    48   29   30 1
    49   29   52 1
    50   31   32 1
    51   31   53 1
    52   31   54 1
    53   32   37 1
    54   32   33 1
    55   33   34 1
    56   33   55 1
    57   33   56 1
    58   34   35 1
    59   34   57 1
    60   34   58 1
    61   35   36 1
    62   35   59 1
    63   35   64 1
    64   36   37 1
    65   36   60 1
    66   36   61 1
    67   37   62 1
    68   37   63 1
@<TRIPOS>MOLECULE
CHEMBL256786
   54    58     0     0     0
SMALL
USER_CHARGES

@<TRIPOS>ATOM
      1 C1         10.8468    0.9826   -3.5870 C.ar      1 <0>        -0.1129
      2 C2         10.7653   -0.3964   -3.5376 C.ar      1 <0>        -0.1180
      3 C3          9.7515   -1.0036   -2.8204 C.ar      1 <0>        -0.1014
      4 C4          8.8195   -0.2318   -2.1521 C.ar      1 <0>        -0.0804
      5 C5          8.9016    1.1473   -2.2007 C.ar      1 <0>        -0.1014
      6 C6          9.9146    1.7545   -2.9191 C.ar      1 <0>        -0.1181
      7 C7          7.7138   -0.8937   -1.3710 C.3       1 <0>        -0.0930
      8 C8          8.1683   -1.1231    0.0474 C.2       1 <0>         0.4823
      9 O1          9.2804   -0.7826    0.3901 O.2       1 <0>        -0.3884
     10 N1          7.3387   -1.7066    0.9349 N.am      1 <0>        -0.6407
     11 C9          7.7453   -1.9117    2.2034 C.2       1 <0>         0.5055
     12 S1          9.3155   -1.4310    2.6873 S.2       1 <0>        -0.4715
     13 N2          6.9157   -2.4953    3.0909 N.pl3     1 <0>        -0.6251
     14 C10         7.3760   -2.8147    4.3745 C.ar      1 <0>         0.1659
     15 C11         6.5607   -2.6001    5.4780 C.ar      1 <0>        -0.1174
     16 C12         7.0141   -2.9150    6.7439 C.ar      1 <0>        -0.0790
     17 C13         8.2838   -3.4463    6.9144 C.ar      1 <0>         0.0437
     18 C14         9.1008   -3.6617    5.8114 C.ar      1 <0>         0.1097
     19 C15         8.6453   -3.3515    4.5433 C.ar      1 <0>        -0.1024
     20 F1         10.3378   -4.1787    5.9775 F         1 <0>        -0.1183
     21 O2          8.7294   -3.7560    8.1614 O.3       1 <0>        -0.2374
     22 C16         9.4949   -2.8416    8.8101 C.ar      1 <0>         0.2103
     23 C17         9.8939   -1.6636    8.1820 C.ar      1 <0>        -0.2290
     24 C18        10.6739   -0.7686    8.8952 C.ar      1 <0>         0.1617
     25 N3         11.0459   -0.9917   10.1300 N.ar      1 <0>        -0.4743
     26 C19        10.6988   -2.1108   10.8063 C.ar      1 <0>         0.1555
     27 C20         9.8982   -3.0477   10.1170 C.ar      1 <0>        -0.2022
     28 S2          9.6520   -4.3400   11.3073 S.3       1 <0>         0.1121
     29 C21        10.5810   -3.6286   12.6548 C.2       1 <0>        -0.0647
     30 C22        11.0345   -2.4629   12.1271 C.2       1 <0>        -0.1252
     31 C23        10.8106   -4.1790   14.0081 C.ar      1 <0>        -0.1202
     32 C24        11.5674   -3.4758   14.9517 C.ar      1 <0>         0.1786
     33 N4         11.7476   -4.0049   16.1493 N.ar      1 <0>        -0.5111
     34 C25        11.2266   -5.1758   16.4590 C.ar      1 <0>         0.3027
     35 N5         10.5073   -5.8716   15.6006 N.ar      1 <0>        -0.5113
     36 C26        10.2723   -5.4148   14.3828 C.ar      1 <0>         0.1720
     37 H1         11.6415    1.4570   -4.1436 H         1 <0>         0.1233
     38 H2         11.4934   -0.9995   -4.0597 H         1 <0>         0.1239
     39 H3          9.6874   -2.0811   -2.7824 H         1 <0>         0.1202
     40 H4          8.1733    1.7503   -1.6789 H         1 <0>         0.1202
     41 H5          9.9785    2.8319   -2.9574 H         1 <0>         0.1239
     42 H6          6.8336   -0.2507   -1.3710 H         1 <0>         0.1094
     43 H7          7.4653   -1.8497   -1.8320 H         1 <0>         0.1093
     44 H8          6.4491   -1.9790    0.6607 H         1 <0>         0.4127
     45 H9          5.9998   -2.6940    2.8407 H         1 <0>         0.4134
     46 H10         5.5718   -2.1864    5.3462 H         1 <0>         0.1456
     47 H11         6.3797   -2.7471    7.6017 H         1 <0>         0.1519
     48 H12         9.2782   -3.5224    3.6851 H         1 <0>         0.1639
     49 H13         9.6022   -1.4536    7.1635 H         1 <0>         0.1521
     50 H14        10.9869    0.1466    8.4148 H         1 <0>         0.1699
     51 H15        11.6412   -1.7992   12.7253 H         1 <0>         0.1528
     52 H16        11.9977   -2.5164   14.7052 H         1 <0>         0.1758
     53 H17        11.3946   -5.5779   17.4472 H         1 <0>         0.2038
     54 H18         9.6780   -5.9882   13.6869 H         1 <0>         0.1711
@<TRIPOS>BOND
     1    1    6 ar
     2    1    2 ar
     3    1   37 1
     4    2    3 ar
     5    2   38 1
     6    3    4 ar
     7    3   39 1
     8    4    5 ar
     9    4    7 1
    10    5    6 ar
    11    5   40 1
    12    6   41 1
    13    7    8 1
    14    7   42 1
    15    7   43 1
    16    8    9 2
    17    8   10 am
    18   10   11 1
    19   10   44 1
    20   11   12 2
    21   11   13 1
    22   13   14 1
    23   13   45 1
    24   14   19 ar
    25   14   15 ar
    26   15   16 ar
    27   15   46 1
    28   16   17 ar
    29   16   47 1
    30   17   18 ar
    31   17   21 1
    32   18   19 ar
    33   18   20 1
    34   19   48 1
    35   21   22 1
    36   22   27 ar
    37   22   23 ar
    38   23   24 ar
    39   23   49 1
    40   24   25 ar
    41   24   50 1
    42   25   26 ar
    43   26   30 1
    44   26   27 ar
    45   27   28 1
    46   28   29 1
    47   29   30 2
    48   29   31 1
    49   30   51 1
    50   31   36 ar
    51   31   32 ar
    52   32   33 ar
    53   32   52 1
    54   33   34 ar
    55   34   35 ar
    56   34   53 1
    57   35   36 ar
    58   36   54 1
@<TRIPOS>MOLECULE
CHEMBL403747
   53    57     0     0     0
SMALL
USER_CHARGES

@<TRIPOS>ATOM
      1 C1         10.8467    0.9822   -3.5872 C.ar      1 <0>        -0.1130
      2 C2         10.7651   -0.3968   -3.5378 C.ar      1 <0>        -0.1181
      3 C3          9.7513   -1.0039   -2.8205 C.ar      1 <0>        -0.1015
      4 C4          8.8194   -0.2320   -2.1522 C.ar      1 <0>        -0.0802
      5 C5          8.9016    1.1471   -2.2008 C.ar      1 <0>        -0.1014
      6 C6          9.9146    1.7542   -2.9193 C.ar      1 <0>        -0.1181
      7 C7          7.7136   -0.8939   -1.3711 C.3       1 <0>        -0.0930
      8 C8          8.1683   -1.1232    0.0473 C.2       1 <0>         0.4823
      9 O1          9.2804   -0.7828    0.3900 O.2       1 <0>        -0.3884
     10 N1          7.3387   -1.7067    0.9349 N.am      1 <0>        -0.6409
     11 C9          7.7453   -1.9118    2.2034 C.2       1 <0>         0.5054
     12 S1          9.3156   -1.4312    2.6872 S.2       1 <0>        -0.4716
     13 N2          6.9157   -2.4952    3.0909 N.pl3     1 <0>        -0.6248
     14 C10         7.3760   -2.8147    4.3745 C.ar      1 <0>         0.1645
     15 C11         6.5607   -2.6001    5.4780 C.ar      1 <0>        -0.1173
     16 C12         7.0144   -2.9145    6.7440 C.ar      1 <0>        -0.0797
     17 C13         8.2843   -3.4453    6.9144 C.ar      1 <0>         0.0457
     18 C14         9.1012   -3.6607    5.8115 C.ar      1 <0>         0.1093
     19 C15         8.6453   -3.3514    4.5433 C.ar      1 <0>        -0.1023
     20 F1         10.3386   -4.1770    5.9775 F         1 <0>        -0.1184
     21 O2          8.7301   -3.7547    8.1615 O.3       1 <0>        -0.2384
     22 C16         9.4954   -2.8398    8.8098 C.ar      1 <0>         0.2120
     23 C17         9.8941   -1.6613    8.1811 C.ar      1 <0>        -0.2358
     24 C18        10.6736   -0.7662    8.8936 C.ar      1 <0>         0.1609
     25 N3         11.0456   -0.9888   10.1289 N.ar      1 <0>        -0.4792
     26 C19        10.6987   -2.1080   10.8053 C.ar      1 <0>         0.1638
     27 C20         9.8987   -3.0453   10.1161 C.ar      1 <0>        -0.2114
     28 S2          9.6535   -4.3380   11.3062 S.3       1 <0>         0.1069
     29 C21        10.5827   -3.6265   12.6535 C.2       1 <0>        -0.0177
     30 C22        11.0339   -2.4594   12.1265 C.2       1 <0>        -0.1545
     31 C23        10.8137   -4.1774   14.0065 C.2       1 <0>        -0.1284
     32 C24        10.3238   -5.4552   14.5389 C.2       1 <0>        -0.1986
     33 C25        10.7799   -5.5306   15.8000 C.2       1 <0>        -0.0246
     34 O3         11.4924   -4.4274   16.0747 O.3       1 <0>        -0.1731
     35 C26        11.5290   -3.6083   15.0140 C.2       1 <0>         0.0169
     36 H1         11.6414    1.4565   -4.1439 H         1 <0>         0.1233
     37 H2         11.4931   -0.9999   -4.0600 H         1 <0>         0.1239
     38 H3          9.6870   -2.0814   -2.7826 H         1 <0>         0.1202
     39 H4          8.1734    1.7502   -1.6790 H         1 <0>         0.1202
     40 H5          9.9786    2.8316   -2.9576 H         1 <0>         0.1239
     41 H6          6.8336   -0.2507   -1.3710 H         1 <0>         0.1093
     42 H7          7.4650   -1.8498   -1.8320 H         1 <0>         0.1092
     43 H8          6.4489   -1.9790    0.6607 H         1 <0>         0.4126
     44 H9          5.9998   -2.6939    2.8408 H         1 <0>         0.4131
     45 H10         5.5717   -2.1867    5.3462 H         1 <0>         0.1453
     46 H11         6.3801   -2.7466    7.6018 H         1 <0>         0.1517
     47 H12         9.2781   -3.5227    3.6850 H         1 <0>         0.1636
     48 H13         9.6023   -1.4517    7.1626 H         1 <0>         0.1502
     49 H14        10.9866    0.1489    8.4128 H         1 <0>         0.1678
     50 H15        11.6404   -1.7955   12.7246 H         1 <0>         0.1486
     51 H16         9.7191   -6.1856   14.0219 H         1 <0>         0.1569
     52 H17        10.6012   -6.3476   16.4834 H         1 <0>         0.2101
     53 H18        12.0384   -2.6570   14.9679 H         1 <0>         0.2130
@<TRIPOS>BOND
     1    1    6 ar
     2    1    2 ar
     3    1   36 1
     4    2    3 ar
     5    2   37 1
     6    3    4 ar
     7    3   38 1
     8    4    5 ar
     9    4    7 1
    10    5    6 ar
    11    5   39 1
    12    6   40 1
    13    7    8 1
    14    7   41 1
    15    7   42 1
    16    8    9 2
    17    8   10 am
    18   10   11 1
    19   10   43 1
    20   11   12 2
    21   11   13 1
    22   13   14 1
    23   13   44 1
    24   14   19 ar
    25   14   15 ar
    26   15   16 ar
    27   15   45 1
    28   16   17 ar
    29   16   46 1
    30   17   18 ar
    31   17   21 1
    32   18   19 ar
    33   18   20 1
    34   19   47 1
    35   21   22 1
    36   22   27 ar
    37   22   23 ar
    38   23   24 ar
    39   23   48 1
    40   24   25 ar
    41   24   49 1
    42   25   26 ar
    43   26   30 1
    44   26   27 ar
    45   27   28 1
    46   28   29 1
    47   29   30 2
    48   29   31 1
    49   30   50 1
    50   31   35 2
    51   31   32 1
    52   32   33 2
    53   32   51 1
    54   33   34 1
    55   33   52 1
    56   34   35 1
    57   35   53 1
@<TRIPOS>MOLECULE
CHEMBL566623
   58    62     0     0     0
SMALL
USER_CHARGES

@<TRIPOS>ATOM
      1 C1          0.3104    1.4345   -0.0251 C.3       1 <0>         0.0602
      2 N1          1.1579    0.5385    0.7655 N.pl3     1 <0>        -0.4174
      3 C2          2.5032    0.6391    0.9357 C.2       1 <0>        -0.0153
      4 C3          2.8813   -0.3887    1.7365 C.2       1 <0>        -0.0180
      5 N2          1.7997   -1.0981    2.0477 N.2       1 <0>        -0.4262
      6 C4          0.7450   -0.5537    1.4768 C.2       1 <0>         0.1062
      7 C5         -0.6411   -1.0403    1.5831 C.2       1 <0>         0.5319
      8 O1         -1.5379   -0.4540    1.0055 O.2       1 <0>        -0.4344
      9 C6         -0.9414   -2.2340    2.3869 C.2       1 <0>        -0.1964
     10 C7         -2.1461   -2.8342    2.5996 C.2       1 <0>        -0.0561
     11 C8         -2.2247   -3.9805    3.4086 C.ar      1 <0>         0.1281
     12 C9         -0.9975   -4.4244    3.9499 C.ar      1 <0>        -0.2138
     13 S1          0.1828   -3.2599    3.3190 S.3       1 <0>         0.2199
     14 C10        -0.9205   -5.5422    4.7662 C.ar      1 <0>         0.2067
     15 C11        -2.0987   -6.2277    5.0445 C.ar      1 <0>        -0.2245
     16 C12        -3.2818   -5.7580    4.4927 C.ar      1 <0>         0.1574
     17 N3         -3.3264   -4.7007    3.7256 N.ar      1 <0>        -0.4676
     18 O2          0.2671   -5.9551    5.2774 O.3       1 <0>        -0.2343
     19 C13         0.2581   -6.9955    6.1531 C.ar      1 <0>         0.0165
     20 C14         0.1546   -6.7547    7.5150 C.ar      1 <0>        -0.0643
     21 C15         0.1453   -7.8107    8.4050 C.ar      1 <0>        -0.1475
     22 C16         0.2392   -9.1147    7.9370 C.ar      1 <0>         0.1937
     23 C17         0.3424   -9.3572    6.5739 C.ar      1 <0>        -0.1594
     24 C18         0.3468   -8.2999    5.6829 C.ar      1 <0>         0.1274
     25 F1          0.4420   -8.5349    4.3559 F         1 <0>        -0.1198
     26 N4          0.2303  -10.1855    8.8402 N.am      1 <0>        -0.6721
     27 C19        -0.2031  -11.3983    8.4433 C.2       1 <0>         0.5119
     28 O3         -0.6872  -11.5382    7.3399 O.2       1 <0>        -0.4618
     29 C20        -0.0862  -12.5808    9.3702 C.3       1 <0>        -0.1631
     30 C21        -0.6384  -13.8077    8.6914 C.2       1 <0>         0.5104
     31 O4         -1.0831  -13.7296    7.5657 O.2       1 <0>        -0.4704
     32 N5         -0.6381  -14.9918    9.3352 N.am      1 <0>        -0.6763
     33 C22        -1.0443  -16.1518    8.6665 C.ar      1 <0>         0.1442
     34 C23        -1.7301  -17.1460    9.3518 C.ar      1 <0>        -0.1449
     35 C24        -2.1297  -18.2899    8.6889 C.ar      1 <0>        -0.1013
     36 C25        -1.8474  -18.4458    7.3442 C.ar      1 <0>        -0.1330
     37 C26        -1.1643  -17.4579    6.6591 C.ar      1 <0>        -0.1001
     38 C27        -0.7674  -16.3089    7.3147 C.ar      1 <0>        -0.1195
     39 H1         -0.0442    2.2497    0.6056 H         1 <0>         0.0865
     40 H2          0.8875    1.8419   -0.8552 H         1 <0>         0.0927
     41 H3         -0.5427    0.8785   -0.4140 H         1 <0>         0.1050
     42 H4          3.1490    1.3945    0.5129 H         1 <0>         0.1888
     43 H5          3.8890   -0.5958    2.0653 H         1 <0>         0.1842
     44 H6         -3.0394   -2.4293    2.1473 H         1 <0>         0.1582
     45 H7         -2.0924   -7.1048    5.6747 H         1 <0>         0.1496
     46 H8         -4.2000   -6.2856    4.7048 H         1 <0>         0.1689
     47 H9          0.0815   -5.7408    7.8798 H         1 <0>         0.1498
     48 H10         0.0654   -7.6222    9.4654 H         1 <0>         0.1455
     49 H11         0.4155  -10.3712    6.2094 H         1 <0>         0.1655
     50 H12         0.5360  -10.0540    9.7514 H         1 <0>         0.4175
     51 H13         0.9621  -12.7445    9.6199 H         1 <0>         0.1336
     52 H14        -0.6506  -12.3849   10.2819 H         1 <0>         0.1317
     53 H15        -0.3563  -15.0397   10.2621 H         1 <0>         0.4106
     54 H16        -1.9505  -17.0250   10.4022 H         1 <0>         0.1253
     55 H17        -2.6628  -19.0636    9.2215 H         1 <0>         0.1269
     56 H18        -2.1609  -19.3412    6.8281 H         1 <0>         0.1243
     57 H19        -0.9450  -17.5827    5.6089 H         1 <0>         0.1265
     58 H20        -0.2384  -15.5354    6.7779 H         1 <0>         0.1323
@<TRIPOS>BOND
     1    1    2 1
     2    1   39 1
     3    1   40 1
     4    1   41 1
     5    2    6 1
     6    2    3 1
     7    3    4 2
     8    3   42 1
     9    4    5 1
    10    4   43 1
    11    5    6 2
    12    6    7 1
    13    7    8 2
    14    7    9 1
    15    9   13 1
    16    9   10 2
    17   10   11 1
    18   10   44 1
    19   11   17 ar
    20   11   12 ar
    21   12   13 1
    22   12   14 ar
    23   14   15 ar
    24   14   18 1
    25   15   16 ar
    26   15   45 1
    27   16   17 ar
    28   16   46 1
    29   18   19 1
    30   19   24 ar
    31   19   20 ar
    32   20   21 ar
    33   20   47 1
    34   21   22 ar
    35   21   48 1
    36   22   23 ar
    37   22   26 1
    38   23   24 ar
    39   23   49 1
    40   24   25 1
    41   26   27 am
    42   26   50 1
    43   27   28 2
    44   27   29 1
    45   29   30 1
    46   29   51 1
    47   29   52 1
    48   30   31 2
    49   30   32 am
    50   32   33 1
    51   32   53 1
    52   33   38 ar
    53   33   34 ar
    54   34   35 ar
    55   34   54 1
    56   35   36 ar
    57   35   55 1
    58   36   37 ar
    59   36   56 1
    60   37   38 ar
    61   37   57 1
    62   38   58 1
@<TRIPOS>MOLECULE
CHEMBL572878
   62    66     0     0     0
SMALL
USER_CHARGES

@<TRIPOS>ATOM
      1 C1          0.6605   -0.0459    2.1766 C.3       1 <0>        -0.0811
      2 C2          0.1518   -0.6678    0.9016 C.2       1 <0>         0.1060
      3 C3          0.5159   -1.9211    0.4021 C.2       1 <0>        -0.2723
      4 C4         -0.1582   -2.1174   -0.7646 C.2       1 <0>         0.3252
      5 N1         -0.9212   -1.0157   -0.9849 N.pl3     1 <0>        -0.4965
      6 H1         -1.5109   -0.8710   -1.7414 H         1 <0>         0.4336
      7 N2         -0.7096   -0.1283    0.0780 N.2       1 <0>        -0.2841
      8 N3         -0.0793   -3.2424   -1.5828 N.pl3     1 <0>        -0.6253
      9 C5         -0.1793   -3.1069   -2.9599 C.ar      1 <0>         0.4729
     10 C6         -0.2071   -1.8436   -3.5441 C.ar      1 <0>        -0.3733
     11 C7         -0.3078   -1.7563   -4.9296 C.ar      1 <0>         0.4788
     12 N4         -0.3738   -2.8761   -5.6461 N.ar      1 <0>        -0.5790
     13 C8         -0.3445   -4.0620   -5.0560 C.ar      1 <0>         0.3699
     14 N5         -0.2442   -4.1831   -3.7403 N.ar      1 <0>        -0.5789
     15 S1         -0.4352   -5.5160   -6.0470 S.3       1 <0>         0.1323
     16 C9         -0.2148   -6.8312   -4.8954 C.ar      1 <0>        -0.1671
     17 C10        -1.3214   -7.4679   -4.3477 C.ar      1 <0>        -0.0279
     18 C11        -1.1485   -8.4985   -3.4459 C.ar      1 <0>        -0.1571
     19 C12         0.1316   -8.8987   -3.0857 C.ar      1 <0>         0.1921
     20 C13         1.2381   -8.2621   -3.6327 C.ar      1 <0>        -0.1322
     21 C14         1.0657   -7.2356   -4.5393 C.ar      1 <0>        -0.0281
     22 N6          0.3069   -9.9445   -2.1700 N.am      1 <0>        -0.6744
     23 C15         1.3500   -9.9254   -1.3167 C.2       1 <0>         0.5469
     24 O1          2.0821   -8.9592   -1.2754 O.2       1 <0>        -0.5137
     25 C16         1.6067  -11.1045   -0.4140 C.3       1 <0>        -0.2024
     26 C17         1.3853  -10.9065    1.0869 C.3       1 <0>        -0.1493
     27 C18         2.8064  -11.0219    0.5320 C.3       1 <0>        -0.1425
     28 N7         -0.3395   -0.5195   -5.5549 N.pl3     1 <0>        -0.6162
     29 C19        -0.6634   -0.4031   -6.9851 C.3       1 <0>         0.1024
     30 C20        -1.7593    0.6550   -7.1504 C.3       1 <0>        -0.0226
     31 N8         -1.3254    1.9097   -6.5232 N.4       1 <0>        -0.3849
     32 C21        -1.1753    1.7192   -5.0750 C.3       1 <0>        -0.0216
     33 C22        -0.0561    0.7143   -4.8056 C.3       1 <0>         0.0987
     34 C23        -2.3271    2.9538   -6.7768 C.3       1 <0>        -0.0472
     35 H2          0.0118   -0.3321    3.0044 H         1 <0>         0.0842
     36 H3          1.6744   -0.3951    2.3719 H         1 <0>         0.0837
     37 H4          0.6632    1.0394    2.0755 H         1 <0>         0.0773
     38 H5          1.2093   -2.6111    0.8597 H         1 <0>         0.1576
     39 H6          0.0455   -4.1203   -1.1896 H         1 <0>         0.4366
     40 H7         -0.1523   -0.9523   -2.9366 H         1 <0>         0.1428
     41 H8         -2.3170   -7.1562   -4.6272 H         1 <0>         0.1352
     42 H9         -2.0088   -8.9934   -3.0201 H         1 <0>         0.1349
     43 H10         2.2335   -8.5733   -3.3522 H         1 <0>         0.1415
     44 H11         1.9262   -6.7438   -4.9683 H         1 <0>         0.1326
     45 H12        -0.3225  -10.6824   -2.1501 H         1 <0>         0.4170
     46 H13         1.3636  -12.0803   -0.8345 H         1 <0>         0.1304
     47 H14         1.0539   -9.9234    1.4214 H         1 <0>         0.1003
     48 H15         0.9962  -11.7521    1.6541 H         1 <0>         0.1098
     49 H16         3.3523  -11.9434    0.7341 H         1 <0>         0.1088
     50 H17         3.4100  -10.1148    0.5014 H         1 <0>         0.1096
     51 H18         0.2253   -0.0996   -7.5384 H         1 <0>         0.0928
     52 H19        -1.0213   -1.3625   -7.3589 H         1 <0>         0.1404
     53 H20        -1.9444    0.8239   -8.2112 H         1 <0>         0.1457
     54 H21        -2.6751    0.3074   -6.6723 H         1 <0>         0.1323
     55 H22        -0.9302    2.6724   -4.6065 H         1 <0>         0.1470
     56 H23        -2.1089    1.3395   -4.6597 H         1 <0>         0.1334
     57 H24        -0.0126    0.4934   -3.7391 H         1 <0>         0.1254
     58 H25         0.8950    1.1327   -5.1351 H         1 <0>         0.0984
     59 H26        -3.2849    2.6485   -6.3554 H         1 <0>         0.1218
     60 H27        -2.0062    3.8859   -6.3116 H         1 <0>         0.1260
     61 H28        -2.4336    3.1019   -7.8514 H         1 <0>         0.1269
     62 H29        -0.4408    2.1930   -6.9173 H         1 <0>         0.4262
@<TRIPOS>BOND
     1    1    2 1
     2    1   35 1
     3    1   36 1
     4    1   37 1
     5    2    7 2
     6    2    3 1
     7    3    4 2
     8    3   38 1
     9    4    5 1
    10    4    8 1
    11    5    6 1
    12    5    7 1
    13    8    9 1
    14    8   39 1
    15    9   14 ar
    16    9   10 ar
    17   10   11 ar
    18   10   40 1
    19   11   12 ar
    20   11   28 1
    21   12   13 ar
    22   13   14 ar
    23   13   15 1
    24   15   16 1
    25   16   21 ar
    26   16   17 ar
    27   17   18 ar
    28   17   41 1
    29   18   19 ar
    30   18   42 1
    31   19   20 ar
    32   19   22 1
    33   20   21 ar
    34   20   43 1
    35   21   44 1
    36   22   23 am
    37   22   45 1
    38   23   24 2
    39   23   25 1
    40   25   27 1
    41   25   26 1
    42   25   46 1
    43   26   27 1
    44   26   47 1
    45   26   48 1
    46   27   49 1
    47   27   50 1
    48   28   33 1
    49   28   29 1
    50   29   30 1
    51   29   51 1
    52   29   52 1
    53   30   31 1
    54   30   53 1
    55   30   54 1
    56   31   32 1
    57   31   34 1
    58   31   62 1
    59   32   33 1
    60   32   55 1
    61   32   56 1
    62   33   57 1
    63   33   58 1
    64   34   59 1
    65   34   60 1
    66   34   61 1
@<TRIPOS>MOLECULE
CHEMBL572878__1
   62    66     0     0     0
SMALL
USER_CHARGES

@<TRIPOS>ATOM
      1 C1         -0.0203   -0.4189   -2.7288 C.3       1 <0>        -0.1024
      2 C2         -0.0072   -0.8795   -1.2939 C.2       1 <0>         0.1306
      3 C3          0.0080   -2.1636   -0.8701 C.2       1 <0>        -0.2894
      4 C4          0.0168   -2.1537    0.5342 C.2       1 <0>         0.3349
      5 N1          0.0071   -0.9032    0.9320 N.2       1 <0>        -0.3401
      6 H1         -0.0077    0.8864   -0.2066 H         1 <0>         0.4405
      7 N2         -0.0027   -0.0836   -0.2039 N.pl3     1 <0>        -0.4741
      8 N3          0.0327   -3.2813    1.3649 N.pl3     1 <0>        -0.6092
      9 C5          0.1476   -3.1291    2.7387 C.ar      1 <0>         0.4608
     10 C6          0.1255   -1.8606    3.3120 C.ar      1 <0>        -0.3458
     11 C7          0.2440   -1.7562    4.6948 C.ar      1 <0>         0.4614
     12 N4          0.3737   -2.8652    5.4194 N.ar      1 <0>        -0.5791
     13 C8          0.3906   -4.0564    4.8397 C.ar      1 <0>         0.3615
     14 N5          0.2748   -4.1940    3.5268 N.ar      1 <0>        -0.5810
     15 S1          0.5650   -5.4957    5.8411 S.3       1 <0>         0.1206
     16 C9          0.3894   -6.8301    4.7039 C.ar      1 <0>        -0.1613
     17 C10         1.5165   -7.4193    4.1448 C.ar      1 <0>        -0.0287
     18 C11         1.3787   -8.4646    3.2539 C.ar      1 <0>        -0.1320
     19 C12         0.1135   -8.9270    2.9161 C.ar      1 <0>         0.1896
     20 C13        -1.0133   -8.3382    3.4749 C.ar      1 <0>        -0.1565
     21 C14        -0.8759   -7.2969    4.3705 C.ar      1 <0>        -0.0291
     22 N6         -0.0261   -9.9874    2.0111 N.am      1 <0>        -0.6751
     23 C15         0.8857  -10.9797    1.9898 C.2       1 <0>         0.5458
     24 O1          1.7696  -11.0090    2.8199 O.2       1 <0>        -0.5122
     25 C16         0.8070  -12.0528    0.9347 C.3       1 <0>        -0.2020
     26 C17         0.4357  -13.4655    1.3902 C.3       1 <0>        -0.1494
     27 C18         1.8713  -13.1517    0.9640 C.3       1 <0>        -0.1431
     28 N7          0.2277   -0.5137    5.3093 N.pl3     1 <0>        -0.6169
     29 C19         0.5721   -0.3690    6.7321 C.3       1 <0>         0.1034
     30 C20         1.6187    0.7419    6.8680 C.3       1 <0>        -0.0226
     31 N8          1.1133    1.9687    6.2389 N.4       1 <0>        -0.3850
     32 C21         0.9458    1.7581    4.7954 C.3       1 <0>        -0.0207
     33 C22        -0.1286    0.6983    4.5555 C.3       1 <0>         0.0987
     34 C23         2.0681    3.0619    6.4649 C.3       1 <0>        -0.0469
     35 H2         -1.0511   -0.3180   -3.0686 H         1 <0>         0.0891
     36 H3          0.4835    0.5446   -2.8057 H         1 <0>         0.0768
     37 H4          0.4971   -1.1501   -3.3498 H         1 <0>         0.0930
     38 H5          0.0127   -3.0410   -1.4997 H         1 <0>         0.1559
     39 H6         -0.0366   -4.1688    0.9794 H         1 <0>         0.4320
     40 H7          0.0194   -0.9783    2.6982 H         1 <0>         0.1873
     41 H8          2.5004   -7.0592    4.4069 H         1 <0>         0.1341
     42 H9          2.2548   -8.9226    2.8193 H         1 <0>         0.1397
     43 H10        -1.9971   -8.6977    3.2117 H         1 <0>         0.1338
     44 H11        -1.7520   -6.8419    4.8084 H         1 <0>         0.1331
     45 H12        -0.7791  -10.0075    1.3999 H         1 <0>         0.4156
     46 H13         0.4465  -11.7272   -0.0410 H         1 <0>         0.1293
     47 H14         0.2484  -13.6187    2.4530 H         1 <0>         0.1016
     48 H15        -0.1694  -14.0695    0.7141 H         1 <0>         0.1095
     49 H16         2.2106  -13.5492    0.0075 H         1 <0>         0.1082
     50 H17         2.6283  -13.0984    1.7463 H         1 <0>         0.1101
     51 H18        -0.3197   -0.1034    7.2997 H         1 <0>         0.0902
     52 H19         0.9826   -1.3067    7.1069 H         1 <0>         0.1389
     53 H20         1.8150    0.9291    7.9237 H         1 <0>         0.1439
     54 H21         2.5412    0.4344    6.3755 H         1 <0>         0.1318
     55 H22         0.6464    2.6941    4.3239 H         1 <0>         0.1434
     56 H23         1.8887    1.4198    4.3657 H         1 <0>         0.1329
     57 H24        -0.1812    0.4659    3.4919 H         1 <0>         0.1343
     58 H25        -1.0924    1.0735    4.8996 H         1 <0>         0.0934
     59 H26         3.0315    2.7990    6.0280 H         1 <0>         0.1212
     60 H27         1.6941    3.9733    5.9984 H         1 <0>         0.1247
     61 H28         2.1873    3.2246    7.5361 H         1 <0>         0.1260
     62 H29         0.2235    2.2127    6.6474 H         1 <0>         0.4252
@<TRIPOS>BOND
     1    1    2 1
     2    1   35 1
     3    1   36 1
     4    1   37 1
     5    2    3 2
     6    2    7 1
     7    3   38 1
     8    3    4 1
     9    4    8 1
    10    4    5 2
    11    5    7 1
    12    6    7 1
    13    8    9 1
    14    8   39 1
    15    9   14 ar
    16    9   10 ar
    17   10   11 ar
    18   10   40 1
    19   11   12 ar
    20   11   28 1
    21   12   13 ar
    22   13   14 ar
    23   13   15 1
    24   15   16 1
    25   16   21 ar
    26   16   17 ar
    27   17   18 ar
    28   17   41 1
    29   18   19 ar
    30   18   42 1
    31   19   20 ar
    32   19   22 1
    33   20   21 ar
    34   20   43 1
    35   21   44 1
    36   22   23 am
    37   22   45 1
    38   23   24 2
    39   23   25 1
    40   25   27 1
    41   25   26 1
    42   25   46 1
    43   26   27 1
    44   26   47 1
    45   26   48 1
    46   27   49 1
    47   27   50 1
    48   28   33 1
    49   28   29 1
    50   29   30 1
    51   29   51 1
    52   29   52 1
    53   30   31 1
    54   30   53 1
    55   30   54 1
    56   31   32 1
    57   31   34 1
    58   31   62 1
    59   32   33 1
    60   32   55 1
    61   32   56 1
    62   33   57 1
    63   33   58 1
    64   34   59 1
    65   34   60 1
    66   34   61 1
@<TRIPOS>MOLECULE
CHEMBL500834
   77    81     0     0     0
SMALL
USER_CHARGES

@<TRIPOS>ATOM
      1 C1         -0.1398    1.4619    0.0193 C.3       1 <0>         0.0344
      2 N1         -0.0532   -0.0004    0.0043 N.am      1 <0>        -0.5063
      3 C2         -0.1524   -0.6692   -1.1645 C.2       1 <0>         0.5268
      4 O1         -0.3140   -0.0706   -2.2142 O.2       1 <0>        -0.5025
      5 C3         -0.0635   -2.0872   -1.1420 C.2       1 <0>        -0.2070
      6 C4          0.1206   -2.7125    0.0787 C.2       1 <0>         0.1715
      7 N2          0.2088   -1.9786    1.1885 N.2       1 <0>        -0.5287
      8 C5          0.1309   -0.6749    1.1563 C.2       1 <0>         0.3857
      9 C6          0.2445    0.0968    2.4457 C.3       1 <0>         0.2452
     10 C7          1.6991    0.2866    2.7910 C.ar      1 <0>        -0.1227
     11 C8          2.4101   -0.7430    3.3786 C.ar      1 <0>        -0.0893
     12 C9          3.7443   -0.5689    3.6953 C.ar      1 <0>        -0.1185
     13 C10         4.3678    0.6346    3.4240 C.ar      1 <0>        -0.0984
     14 C11         3.6571    1.6640    2.8356 C.ar      1 <0>        -0.1137
     15 C12         2.3239    1.4884    2.5149 C.ar      1 <0>        -0.0980
     16 N3         -0.4194   -0.6462    3.5196 N.am      1 <0>        -0.6891
     17 C13        -0.8941    0.0081    4.5981 C.2       1 <0>         0.5073
     18 O2         -0.7717    1.2120    4.6794 O.2       1 <0>        -0.5185
     19 C14        -1.5771   -0.7561    5.7028 C.3       1 <0>        -0.0309
     20 N4         -1.9999    0.1774    6.7552 N.4       1 <0>        -0.3729
     21 C15        -2.7698   -0.5490    7.7738 C.3       1 <0>        -0.0477
     22 C16        -0.8151    0.7837    7.3770 C.3       1 <0>        -0.0608
     23 C17        -0.1657   -2.8755   -2.3925 C.ar      1 <0>         0.0073
     24 C18         0.8151   -2.7547   -3.3768 C.ar      1 <0>        -0.0837
     25 C19         0.7180   -3.4894   -4.5399 C.ar      1 <0>        -0.0855
     26 C20        -0.3546   -4.3490   -4.7327 C.ar      1 <0>         0.0524
     27 C21        -1.3349   -4.4722   -3.7545 C.ar      1 <0>         0.1010
     28 C22        -1.2398   -3.7439   -2.5852 C.ar      1 <0>        -0.1274
     29 F1         -2.3778   -5.3095   -3.9454 F         1 <0>        -0.1216
     30 O3         -0.4470   -5.0714   -5.8803 O.3       1 <0>        -0.2397
     31 C23        -1.1815   -4.5585   -6.8980 C.ar      1 <0>         0.1789
     32 C24        -1.9031   -3.3882   -6.7377 C.ar      1 <0>        -0.2635
     33 C25        -2.6464   -2.8868   -7.7981 C.ar      1 <0>         0.1642
     34 N5         -2.6881   -3.4929   -8.9617 N.ar      1 <0>        -0.4892
     35 C26        -2.0152   -4.6274   -9.1865 C.ar      1 <0>         0.1722
     36 C27        -1.2292   -5.1988   -8.1563 C.ar      1 <0>        -0.1041
     37 C28        -0.5202   -6.3858   -8.3967 C.ar      1 <0>        -0.1571
     38 C29        -0.5899   -6.9772   -9.6245 C.ar      1 <0>         0.1170
     39 C30        -1.3626   -6.4105  -10.6487 C.ar      1 <0>         0.1532
     40 C31        -2.0715   -5.2633  -10.4383 C.ar      1 <0>        -0.1795
     41 O4         -1.4157   -7.0181  -11.8630 O.3       1 <0>        -0.2987
     42 C32        -2.2193   -6.3938  -12.8662 C.3       1 <0>         0.0204
     43 O5          0.0971   -8.1273   -9.8575 O.3       1 <0>        -0.3002
     44 C33         0.8661   -8.6544   -8.7745 C.3       1 <0>         0.0229
     45 H1          0.7490    1.8737    0.4973 H         1 <0>         0.0901
     46 H2         -0.2069    1.8324   -1.0036 H         1 <0>         0.1171
     47 H3         -1.0261    1.7677    0.5753 H         1 <0>         0.0892
     48 H4          0.1921   -3.7888    0.1323 H         1 <0>         0.1801
     49 H5         -0.2313    1.0705    2.3295 H         1 <0>         0.1304
     50 H6          1.9230   -1.6834    3.5905 H         1 <0>         0.1264
     51 H7          4.2996   -1.3731    4.1551 H         1 <0>         0.1295
     52 H8          5.4100    0.7709    3.6721 H         1 <0>         0.1303
     53 H9          4.1441    2.6044    2.6239 H         1 <0>         0.1319
     54 H10         1.7696    2.2913    2.0518 H         1 <0>         0.1261
     55 H11        -0.5173   -1.6090    3.4546 H         1 <0>         0.4243
     56 H12        -2.4499   -1.2716    5.3022 H         1 <0>         0.1634
     57 H13        -0.8844   -1.4862    6.1216 H         1 <0>         0.1635
     58 H14        -2.1482   -1.3309    8.2100 H         1 <0>         0.1253
     59 H15        -3.0836    0.1437    8.5547 H         1 <0>         0.1308
     60 H16        -3.6490   -0.9988    7.3125 H         1 <0>         0.1258
     61 H17        -1.1288    1.4764    8.1579 H         1 <0>         0.1276
     62 H18        -0.1934    0.0018    7.8132 H         1 <0>         0.1203
     63 H19        -0.2438    1.3227    6.6212 H         1 <0>         0.1398
     64 H20         1.6501   -2.0860   -3.2283 H         1 <0>         0.1388
     65 H21         1.4774   -3.3954   -5.3020 H         1 <0>         0.1490
     66 H22        -1.9984   -3.8433   -1.8229 H         1 <0>         0.1455
     67 H23        -1.8885   -2.8673   -5.7916 H         1 <0>         0.1367
     68 H24        -3.2059   -1.9731   -7.6617 H         1 <0>         0.1634
     69 H25         0.0778   -6.8287   -7.6140 H         1 <0>         0.1486
     70 H26        -2.6627   -4.8380  -11.2357 H         1 <0>         0.1555
     71 H27        -2.1742   -6.9795  -13.7844 H         1 <0>         0.1072
     72 H28        -3.2518   -6.3373  -12.5216 H         1 <0>         0.0613
     73 H29        -1.8448   -5.3882  -13.0580 H         1 <0>         0.0613
     74 H30         1.3625   -9.5709   -9.0937 H         1 <0>         0.1060
     75 H31         1.6145   -7.9227   -8.4705 H         1 <0>         0.0577
     76 H32         0.2077   -8.8718   -7.9334 H         1 <0>         0.0579
     77 H33        -2.5753    0.9012    6.3514 H         1 <0>         0.4340
@<TRIPOS>BOND
     1    1    2 1
     2    1   45 1
     3    1   46 1
     4    1   47 1
     5    2    8 1
     6    2    3 am
     7    3    4 2
     8    3    5 1
     9    5    6 2
    10    5   23 1
    11    6    7 1
    12    6   48 1
    13    7    8 2
    14    8    9 1
    15    9   10 1
    16    9   16 1
    17    9   49 1
    18   10   15 ar
    19   10   11 ar
    20   11   12 ar
    21   11   50 1
    22   12   13 ar
    23   12   51 1
    24   13   14 ar
    25   13   52 1
    26   14   15 ar
    27   14   53 1
    28   15   54 1
    29   16   17 am
    30   16   55 1
    31   17   18 2
    32   17   19 1
    33   19   20 1
    34   19   56 1
    35   19   57 1
    36   20   21 1
    37   20   22 1
    38   20   77 1
    39   21   58 1
    40   21   59 1
    41   21   60 1
    42   22   61 1
    43   22   62 1
    44   22   63 1
    45   23   28 ar
    46   23   24 ar
    47   24   25 ar
    48   24   64 1
    49   25   26 ar
    50   25   65 1
    51   26   27 ar
    52   26   30 1
    53   27   28 ar
    54   27   29 1
    55   28   66 1
    56   30   31 1
    57   31   36 ar
    58   31   32 ar
    59   32   33 ar
    60   32   67 1
    61   33   34 ar
    62   33   68 1
    63   34   35 ar
    64   35   40 ar
    65   35   36 ar
    66   36   37 ar
    67   37   38 ar
    68   37   69 1
    69   38   39 ar
    70   38   43 1
    71   39   40 ar
    72   39   41 1
    73   40   70 1
    74   41   42 1
    75   42   71 1
    76   42   72 1
    77   42   73 1
    78   43   44 1
    79   44   74 1
    80   44   75 1
    81   44   76 1
@<TRIPOS>MOLECULE
CHEMBL500834__1
   77    81     0     0     0
SMALL
USER_CHARGES

@<TRIPOS>ATOM
      1 C1         -0.1158    1.3328    0.1093 C.3       1 <0>         0.0366
      2 N1         -0.0080   -0.1276    0.0654 N.am      1 <0>        -0.5064
      3 C2         -0.0986   -0.7746   -1.1162 C.2       1 <0>         0.5267
      4 O1         -0.2698   -0.1578   -2.1538 O.2       1 <0>        -0.5017
      5 C3          0.0109   -2.1913   -1.1218 C.2       1 <0>        -0.2061
      6 C4          0.2052   -2.8378    0.0863 C.2       1 <0>         0.1706
      7 N2          0.2838   -2.1247    1.2103 N.2       1 <0>        -0.5280
      8 C5          0.1870   -0.8219    1.2038 C.2       1 <0>         0.3850
      9 C6          0.2906   -0.0741    2.5081 C.3       1 <0>         0.2461
     10 C7         -1.0500   -0.0763    3.1963 C.ar      1 <0>        -0.1230
     11 C8         -1.4582   -1.1868    3.9113 C.ar      1 <0>        -0.0894
     12 C9         -2.6879   -1.1887    4.5425 C.ar      1 <0>        -0.1185
     13 C10        -3.5094   -0.0801    4.4592 C.ar      1 <0>        -0.0984
     14 C11        -3.1009    1.0308    3.7450 C.ar      1 <0>        -0.1132
     15 C12        -1.8693    1.0344    3.1173 C.ar      1 <0>        -0.0979
     16 N3          1.2817   -0.7264    3.3675 N.am      1 <0>        -0.6894
     17 C13         1.8514   -0.0416    4.3790 C.2       1 <0>         0.5070
     18 O2          1.5435    1.1145    4.5778 O.2       1 <0>        -0.5171
     19 C14         2.8709   -0.7125    5.2630 C.3       1 <0>        -0.0309
     20 N4          3.3371    0.2379    6.2814 N.4       1 <0>        -0.3730
     21 C15         4.2396   -0.4486    7.2153 C.3       1 <0>        -0.0477
     22 C16         4.0544    1.3416    5.6293 C.3       1 <0>        -0.0607
     23 C17        -0.0810   -2.9562   -2.3874 C.ar      1 <0>         0.0061
     24 C18         0.8970   -2.8019   -3.3698 C.ar      1 <0>        -0.0843
     25 C19         0.8094   -3.5148   -4.5471 C.ar      1 <0>        -0.0859
     26 C20        -0.2507   -4.3860   -4.7561 C.ar      1 <0>         0.0532
     27 C21        -1.2282   -4.5426   -3.7798 C.ar      1 <0>         0.0996
     28 C22        -1.1426   -3.8362   -2.5965 C.ar      1 <0>        -0.1260
     29 F1         -2.2591   -5.3911   -3.9866 F         1 <0>        -0.1213
     30 O3         -0.3338   -5.0869   -5.9177 O.3       1 <0>        -0.2395
     31 C23        -1.1651   -4.6230   -6.8831 C.ar      1 <0>         0.1784
     32 C24        -1.8238   -3.4144   -6.7369 C.ar      1 <0>        -0.2634
     33 C25        -2.6692   -2.9649   -7.7427 C.ar      1 <0>         0.1642
     34 N5         -2.8670   -3.6563   -8.8409 N.ar      1 <0>        -0.4890
     35 C26        -2.2631   -4.8321   -9.0482 C.ar      1 <0>         0.1722
     36 C27        -1.3811   -5.3555   -8.0715 C.ar      1 <0>        -0.1038
     37 C28        -0.7448   -6.5863   -8.2942 C.ar      1 <0>        -0.1569
     38 C29        -0.9774   -7.2668   -9.4540 C.ar      1 <0>         0.1169
     39 C30        -1.8457   -6.7482  -10.4258 C.ar      1 <0>         0.1530
     40 C31        -2.4866   -5.5593  -10.2296 C.ar      1 <0>        -0.1793
     41 O4         -2.0608   -7.4444  -11.5728 O.3       1 <0>        -0.2988
     42 C32        -2.9553   -6.8656  -12.5250 C.3       1 <0>         0.0203
     43 O5         -0.3610   -8.4594   -9.6698 O.3       1 <0>        -0.3001
     44 C33         0.5118   -8.9338   -8.6425 C.3       1 <0>         0.0229
     45 H1          0.8819    1.7715    0.0905 H         1 <0>         0.0901
     46 H2         -0.6823    1.6814   -0.7542 H         1 <0>         0.1124
     47 H3         -0.6271    1.6320    1.0242 H         1 <0>         0.0913
     48 H4          0.2924   -3.9138    0.1186 H         1 <0>         0.1801
     49 H5          0.5979    0.9535    2.3143 H         1 <0>         0.1286
     50 H6         -0.8164   -2.0529    3.9763 H         1 <0>         0.1263
     51 H7         -3.0071   -2.0566    5.1005 H         1 <0>         0.1294
     52 H8         -4.4705   -0.0819    4.9519 H         1 <0>         0.1304
     53 H9         -3.7428    1.8968    3.6797 H         1 <0>         0.1320
     54 H10        -1.5485    1.9036    2.5624 H         1 <0>         0.1258
     55 H11         1.5280   -1.6510    3.2085 H         1 <0>         0.4241
     56 H12         2.4170   -1.5748    5.7514 H         1 <0>         0.1641
     57 H13         3.7163   -1.0408    4.6583 H         1 <0>         0.1626
     58 H14         5.0956   -0.8443    6.6687 H         1 <0>         0.1251
     59 H15         4.5855    0.2567    7.9710 H         1 <0>         0.1308
     60 H16         3.7074   -1.2675    7.6992 H         1 <0>         0.1261
     61 H17         4.4004    2.0469    6.3850 H         1 <0>         0.1278
     62 H18         4.9104    0.9459    5.0827 H         1 <0>         0.1199
     63 H19         3.3848    1.8510    4.9363 H         1 <0>         0.1391
     64 H20         1.7223   -2.1241   -3.2087 H         1 <0>         0.1384
     65 H21         1.5667   -3.3948   -5.3078 H         1 <0>         0.1494
     66 H22        -1.8989   -3.9616   -1.8358 H         1 <0>         0.1461
     67 H23        -1.6812   -2.8236   -5.8441 H         1 <0>         0.1376
     68 H24        -3.1783   -2.0207   -7.6179 H         1 <0>         0.1636
     69 H25        -0.0741   -6.9927   -7.5516 H         1 <0>         0.1483
     70 H26        -3.1528   -5.1718  -10.9862 H         1 <0>         0.1555
     71 H27        -3.0375   -7.5214  -13.3917 H         1 <0>         0.1071
     72 H28        -3.9379   -6.7392  -12.0705 H         1 <0>         0.0613
     73 H29        -2.5728   -5.8945  -12.8393 H         1 <0>         0.0613
     74 H30         0.9368   -9.8922   -8.9408 H         1 <0>         0.1058
     75 H31         1.3146   -8.2132   -8.4863 H         1 <0>         0.0577
     76 H32        -0.0503   -9.0580   -7.7169 H         1 <0>         0.0577
     77 H33         2.5447    0.6042    6.7874 H         1 <0>         0.4347
@<TRIPOS>BOND
     1    1    2 1
     2    1   45 1
     3    1   46 1
     4    1   47 1
     5    2    8 1
     6    2    3 am
     7    3    4 2
     8    3    5 1
     9    5    6 2
    10    5   23 1
    11    6    7 1
    12    6   48 1
    13    7    8 2
    14    8    9 1
    15    9   10 1
    16    9   16 1
    17    9   49 1
    18   10   15 ar
    19   10   11 ar
    20   11   12 ar
    21   11   50 1
    22   12   13 ar
    23   12   51 1
    24   13   14 ar
    25   13   52 1
    26   14   15 ar
    27   14   53 1
    28   15   54 1
    29   16   17 am
    30   16   55 1
    31   17   18 2
    32   17   19 1
    33   19   20 1
    34   19   56 1
    35   19   57 1
    36   20   21 1
    37   20   22 1
    38   20   77 1
    39   21   58 1
    40   21   59 1
    41   21   60 1
    42   22   61 1
    43   22   62 1
    44   22   63 1
    45   23   28 ar
    46   23   24 ar
    47   24   25 ar
    48   24   64 1
    49   25   26 ar
    50   25   65 1
    51   26   27 ar
    52   26   30 1
    53   27   28 ar
    54   27   29 1
    55   28   66 1
    56   30   31 1
    57   31   36 ar
    58   31   32 ar
    59   32   33 ar
    60   32   67 1
    61   33   34 ar
    62   33   68 1
    63   34   35 ar
    64   35   40 ar
    65   35   36 ar
    66   36   37 ar
    67   37   38 ar
    68   37   69 1
    69   38   39 ar
    70   38   43 1
    71   39   40 ar
    72   39   41 1
    73   40   70 1
    74   41   42 1
    75   42   71 1
    76   42   72 1
    77   42   73 1
    78   43   44 1
    79   44   74 1
    80   44   75 1
    81   44   76 1
@<TRIPOS>MOLECULE
CHEMBL251980
   66    70     0     0     0
SMALL
USER_CHARGES

@<TRIPOS>ATOM
      1 C1          0.1254    1.6681    0.0612 C.3       1 <0>        -0.0803
      2 C2          0.0959    0.1634    0.1379 C.2       1 <0>        -0.0801
      3 C3          0.0433   -0.7237   -0.9413 C.2       1 <0>         0.0564
      4 C4          0.0320   -1.9914   -0.4409 C.2       1 <0>        -0.0110
      5 N1          0.0756   -1.9311    0.9105 N.pl3     1 <0>        -0.2276
      6 C5          0.1216   -0.6023    1.2888 C.2       1 <0>        -0.0634
      7 C6          0.1787   -0.2946    2.6652 C.2       1 <0>         0.4658
      8 N2          0.1899   -1.2786    3.5466 N.2       1 <0>        -0.5968
      9 C7          0.1486   -2.5554    3.1692 C.2       1 <0>         0.3299
     10 N3          0.0862   -2.9093    1.9148 N.2       1 <0>        -0.3287
     11 O1          0.2220    0.9939    3.0773 O.3       1 <0>        -0.2131
     12 C8          0.1706    1.2387    4.4140 C.ar      1 <0>         0.0272
     13 C9         -1.0476    1.4946    5.0257 C.ar      1 <0>        -0.0575
     14 C10        -1.1008    1.7438    6.3830 C.ar      1 <0>        -0.1401
     15 C11         0.0657    1.7385    7.1368 C.ar      1 <0>         0.1926
     16 C12         1.2858    1.4820    6.5256 C.ar      1 <0>        -0.1489
     17 C13         1.3378    1.2269    5.1677 C.ar      1 <0>         0.1396
     18 F1          2.5236    0.9717    4.5729 F         1 <0>        -0.1238
     19 N4          0.0114    1.9921    8.5125 N.am      1 <0>        -0.6688
     20 C14         1.0098    2.6698    9.1127 C.2       1 <0>         0.5707
     21 O2          1.9976    2.9854    8.4782 O.2       1 <0>        -0.5067
     22 C15         0.9039    3.0294   10.5425 C.ar      1 <0>        -0.1972
     23 C16         1.9317    3.7384   11.1764 C.ar      1 <0>        -0.0101
     24 C17         1.7835    4.0503   12.5162 C.ar      1 <0>        -0.1759
     25 C18         0.6358    3.6557   13.1804 C.ar      1 <0>         0.1319
     26 N5         -0.3165    2.9884   12.5572 N.ar      1 <0>        -0.4846
     27 C19        -0.2246    2.6731   11.2819 C.ar      1 <0>         0.1392
     28 O3          0.0090   -0.3818   -2.2587 O.3       1 <0>        -0.2760
     29 C20        -0.0432   -1.4511   -3.2053 C.3       1 <0>         0.0611
     30 C21        -0.0758   -0.8762   -4.6228 C.3       1 <0>         0.0575
     31 N6          1.1735   -0.1494   -4.8853 N.3       1 <0>        -0.5323
     32 C22         1.0143    0.7823   -6.0108 C.3       1 <0>         0.0270
     33 C23         2.3164    1.5605   -6.2129 C.3       1 <0>        -0.0028
     34 N7          3.4118    0.6204   -6.4843 N.4       1 <0>        -0.3881
     35 C24         3.5747   -0.2876   -5.3412 C.3       1 <0>        -0.0021
     36 C25         2.2831   -1.0811   -5.1319 C.3       1 <0>         0.0212
     37 C26         4.6579    1.3689   -6.6962 C.3       1 <0>        -0.0458
     38 H1          1.1592    2.0089    0.0050 H         1 <0>         0.0708
     39 H2         -0.4144    1.9973   -0.8267 H         1 <0>         0.0737
     40 H3         -0.3473    2.0866    0.9497 H         1 <0>         0.0726
     41 H4         -0.0058   -2.8973   -1.0277 H         1 <0>         0.1800
     42 H5          0.1602   -3.3239    3.9279 H         1 <0>         0.2275
     43 H6         -1.9550    1.4993    4.4402 H         1 <0>         0.1476
     44 H7         -2.0498    1.9434    6.8583 H         1 <0>         0.1474
     45 H8          2.1933    1.4781    7.1112 H         1 <0>         0.1619
     46 H9         -0.7448    1.6801    9.0337 H         1 <0>         0.4178
     47 H10         2.8174    4.0338   10.6336 H         1 <0>         0.1506
     48 H11         2.5558    4.5958   13.0381 H         1 <0>         0.1488
     49 H12         0.5177    3.8975   14.2263 H         1 <0>         0.1671
     50 H13        -1.0273    2.1300   10.8054 H         1 <0>         0.1584
     51 H14         0.8378   -2.0823   -3.0894 H         1 <0>         0.0607
     52 H15        -0.9408   -2.0451   -3.0334 H         1 <0>         0.0738
     53 H16        -0.1816   -1.6885   -5.3419 H         1 <0>         0.0718
     54 H17        -0.9202   -0.1937   -4.7187 H         1 <0>         0.1007
     55 H18         0.7811    0.2222   -6.9163 H         1 <0>         0.0601
     56 H19         0.2042    1.4787   -5.7946 H         1 <0>         0.1255
     57 H20         2.2051    2.2420   -7.0563 H         1 <0>         0.1359
     58 H21         2.5421    2.1312   -5.3121 H         1 <0>         0.1390
     59 H22         4.3963   -0.9762   -5.5384 H         1 <0>         0.1352
     60 H23         3.7940    0.2925   -4.4449 H         1 <0>         0.1387
     61 H24         2.3986   -1.7442   -4.2745 H         1 <0>         0.1219
     62 H25         2.0707   -1.6719   -6.0229 H         1 <0>         0.0613
     63 H26         4.8897    1.9489   -5.8029 H         1 <0>         0.1234
     64 H27         5.4709    0.6714   -6.8976 H         1 <0>         0.1238
     65 H28         4.5377    2.0418   -7.5452 H         1 <0>         0.1243
     66 H29         3.1973    0.0841   -7.3116 H         1 <0>         0.4218
@<TRIPOS>BOND
     1    1    2 1
     2    1   38 1
     3    1   39 1
     4    1   40 1
     5    2    6 2
     6    2    3 1
     7    3    4 2
     8    3   28 1
     9    4    5 1
    10    4   41 1
    11    5   10 1
    12    5    6 1
    13    6    7 1
    14    7    8 2
    15    7   11 1
    16    8    9 1
    17    9   10 2
    18    9   42 1
    19   11   12 1
    20   12   17 ar
    21   12   13 ar
    22   13   14 ar
    23   13   43 1
    24   14   15 ar
    25   14   44 1
    26   15   16 ar
    27   15   19 1
    28   16   17 ar
    29   16   45 1
    30   17   18 1
    31   19   20 am
    32   19   46 1
    33   20   21 2
    34   20   22 1
    35   22   27 ar
    36   22   23 ar
    37   23   24 ar
    38   23   47 1
    39   24   25 ar
    40   24   48 1
    41   25   26 ar
    42   25   49 1
    43   26   27 ar
    44   27   50 1
    45   28   29 1
    46   29   30 1
    47   29   51 1
    48   29   52 1
    49   30   31 1
    50   30   53 1
    51   30   54 1
    52   31   36 1
    53   31   32 1
    54   32   33 1
    55   32   55 1
    56   32   56 1
    57   33   34 1
    58   33   57 1
    59   33   58 1
    60   34   35 1
    61   34   37 1
    62   34   66 1
    63   35   36 1
    64   35   59 1
    65   35   60 1
    66   36   61 1
    67   36   62 1
    68   37   63 1
    69   37   64 1
    70   37   65 1
@<TRIPOS>MOLECULE
CHEMBL255092
   67    71     0     0     0
SMALL
USER_CHARGES

@<TRIPOS>ATOM
      1 C1          0.1100    1.6657    0.0376 C.3       1 <0>        -0.0803
      2 C2          0.0817    0.1612    0.1203 C.2       1 <0>        -0.0801
      3 C3          0.0277   -0.7301   -0.9554 C.2       1 <0>         0.0564
      4 C4          0.0191   -1.9959   -0.4502 C.2       1 <0>        -0.0111
      5 N1          0.0657   -1.9303    0.9009 N.pl3     1 <0>        -0.2276
      6 C5          0.1103   -0.6000    1.2741 C.2       1 <0>        -0.0632
      7 C6          0.1692   -0.2870    2.6491 C.2       1 <0>         0.4657
      8 N2          0.1830   -1.2676    3.5343 N.2       1 <0>        -0.5967
      9 C7          0.1427   -2.5458    3.1619 C.2       1 <0>         0.3300
     10 N3          0.0794   -2.9046    1.9089 N.2       1 <0>        -0.3288
     11 O1          0.2116    1.0032    3.0562 O.3       1 <0>        -0.2129
     12 C8          0.1621    1.2531    4.3921 C.ar      1 <0>         0.0284
     13 C9         -1.0554    1.5096    5.0048 C.ar      1 <0>        -0.0574
     14 C10        -1.1068    1.7631    6.3613 C.ar      1 <0>        -0.1378
     15 C11         0.0609    1.7619    7.1133 C.ar      1 <0>         0.1905
     16 C12         1.2804    1.5052    6.5009 C.ar      1 <0>        -0.1489
     17 C13         1.3305    1.2458    5.1438 C.ar      1 <0>         0.1403
     18 F1          2.5158    0.9904    4.5479 F         1 <0>        -0.1232
     19 N4          0.0084    2.0198    8.4884 N.am      1 <0>        -0.6614
     20 C14         1.0069    2.7008    9.0848 C.2       1 <0>         0.5747
     21 O2          1.9934    3.0160    8.4475 O.2       1 <0>        -0.4884
     22 C15         0.9031    3.0638   10.5109 C.ar      1 <0>        -0.2110
     23 C16         1.3888    2.1959   11.4949 C.ar      1 <0>         0.1669
     24 C17         1.2879    2.5442   12.8287 C.ar      1 <0>        -0.1614
     25 C18         0.7087    3.7466   13.1916 C.ar      1 <0>        -0.0353
     26 C19         0.2260    4.6105   12.2254 C.ar      1 <0>        -0.1616
     27 C20         0.3236    4.2805   10.8867 C.ar      1 <0>         0.1683
     28 F2         -0.1439    5.1281    9.9443 F         1 <0>        -0.1191
     29 F3          1.9544    1.0207   11.1426 F         1 <0>        -0.1193
     30 O3         -0.0101   -0.3933   -2.2740 O.3       1 <0>        -0.2761
     31 C21        -0.0633   -1.4663   -3.2164 C.3       1 <0>         0.0610
     32 C22        -0.0999   -0.8969   -4.6360 C.3       1 <0>         0.0575
     33 N5          1.1483   -0.1703   -4.9045 N.3       1 <0>        -0.5323
     34 C23         0.9856    0.7569   -6.0332 C.3       1 <0>         0.0271
     35 C24         2.2866    1.5352   -6.2416 C.3       1 <0>        -0.0028
     36 N6          3.3820    0.5948   -6.5122 N.4       1 <0>        -0.3880
     37 C25         3.5484   -0.3086   -5.3660 C.3       1 <0>        -0.0022
     38 C26         2.2579   -1.1022   -5.1503 C.3       1 <0>         0.0212
     39 C27         4.6270    1.3433   -6.7301 C.3       1 <0>        -0.0458
     40 H1          1.1435    2.0069   -0.0219 H         1 <0>         0.0709
     41 H2         -0.4317    1.9910   -0.8505 H         1 <0>         0.0737
     42 H3         -0.3612    2.0872    0.9255 H         1 <0>         0.0726
     43 H4         -0.0188   -2.9041   -1.0334 H         1 <0>         0.1800
     44 H5          0.1566   -3.3114    3.9235 H         1 <0>         0.2275
     45 H6         -1.9638    1.5115    4.4206 H         1 <0>         0.1483
     46 H7         -2.0553    1.9628    6.8376 H         1 <0>         0.1476
     47 H8          2.1887    1.5041    7.0852 H         1 <0>         0.1613
     48 H9         -0.7465    1.7085    9.0118 H         1 <0>         0.4210
     49 H10         1.6619    1.8754   13.5897 H         1 <0>         0.1547
     50 H11         0.6327    4.0124   14.2357 H         1 <0>         0.1547
     51 H12        -0.2248    5.5474   12.5176 H         1 <0>         0.1547
     52 H13         0.8188   -2.0960   -3.1001 H         1 <0>         0.0607
     53 H14        -0.9598   -2.0606   -3.0401 H         1 <0>         0.0737
     54 H15        -0.2069   -1.7120   -5.3517 H         1 <0>         0.0717
     55 H16        -0.9450   -0.2153   -4.7324 H         1 <0>         0.1007
     56 H17         0.7504    0.1932   -6.9359 H         1 <0>         0.0601
     57 H18         0.1756    1.4537   -5.8177 H         1 <0>         0.1255
     58 H19         2.1727    2.2134   -7.0874 H         1 <0>         0.1359
     59 H20         2.5143    2.1095   -5.3436 H         1 <0>         0.1390
     60 H21         4.3699   -0.9974   -5.5626 H         1 <0>         0.1352
     61 H22         3.7696    0.2751   -4.4725 H         1 <0>         0.1387
     62 H23         2.3760   -1.7619   -4.2906 H         1 <0>         0.1219
     63 H24         2.0436   -1.6966   -6.0385 H         1 <0>         0.0613
     64 H25         4.8607    1.9269   -5.8397 H         1 <0>         0.1235
     65 H26         5.4400    0.6456   -6.9309 H         1 <0>         0.1238
     66 H27         4.5042    2.0128   -7.5814 H         1 <0>         0.1243
     67 H28         3.1657    0.0551   -7.3369 H         1 <0>         0.4218
@<TRIPOS>BOND
     1    1    2 1
     2    1   40 1
     3    1   41 1
     4    1   42 1
     5    2    6 2
     6    2    3 1
     7    3    4 2
     8    3   30 1
     9    4    5 1
    10    4   43 1
    11    5   10 1
    12    5    6 1
    13    6    7 1
    14    7    8 2
    15    7   11 1
    16    8    9 1
    17    9   10 2
    18    9   44 1
    19   11   12 1
    20   12   17 ar
    21   12   13 ar
    22   13   14 ar
    23   13   45 1
    24   14   15 ar
    25   14   46 1
    26   15   16 ar
    27   15   19 1
    28   16   17 ar
    29   16   47 1
    30   17   18 1
    31   19   20 am
    32   19   48 1
    33   20   21 2
    34   20   22 1
    35   22   27 ar
    36   22   23 ar
    37   23   24 ar
    38   23   29 1
    39   24   25 ar
    40   24   49 1
    41   25   26 ar
    42   25   50 1
    43   26   27 ar
    44   26   51 1
    45   27   28 1
    46   30   31 1
    47   31   32 1
    48   31   52 1
    49   31   53 1
    50   32   33 1
    51   32   54 1
    52   32   55 1
    53   33   38 1
    54   33   34 1
    55   34   35 1
    56   34   56 1
    57   34   57 1
    58   35   36 1
    59   35   58 1
    60   35   59 1
    61   36   37 1
    62   36   39 1
    63   36   67 1
    64   37   38 1
    65   37   60 1
    66   37   61 1
    67   38   62 1
    68   38   63 1
    69   39   64 1
    70   39   65 1
    71   39   66 1
@<TRIPOS>MOLECULE
CHEMBL1099204
   50    54     0     0     0
SMALL
USER_CHARGES

@<TRIPOS>ATOM
      1 C1          0.4537    1.2824    1.6277 C.ar      1 <0>        -0.2290
      2 C2          1.4121    1.9401    0.8769 C.ar      1 <0>         0.0020
      3 C3          2.3962    1.1765    0.2389 C.ar      1 <0>        -0.2567
      4 C4          2.3701   -0.2213    0.3869 C.ar      1 <0>         0.4473
      5 N1          1.4289   -0.7992    1.1174 N.ar      1 <0>        -0.5312
      6 C5          0.4936   -0.0970    1.7264 C.ar      1 <0>         0.1843
      7 N2          3.3324   -0.9971   -0.2343 N.pl3     1 <0>        -0.6397
      8 C6          3.2296   -2.3928   -0.2089 C.ar      1 <0>         0.1982
      9 C7          1.9799   -2.9980   -0.2424 C.ar      1 <0>        -0.1151
     10 C8          1.8781   -4.3751   -0.2174 C.ar      1 <0>        -0.0679
     11 C9          3.0234   -5.1550   -0.1594 C.ar      1 <0>         0.0216
     12 C10         4.2743   -4.5514   -0.1263 C.ar      1 <0>         0.1204
     13 C11         4.3772   -3.1729   -0.1562 C.ar      1 <0>        -0.1762
     14 F1          5.3900   -5.3112   -0.0694 F         1 <0>        -0.1236
     15 O1          2.9220   -6.5111   -0.1344 O.3       1 <0>        -0.2357
     16 C12         3.0136   -7.1346    1.0670 C.ar      1 <0>         0.2106
     17 C13         3.0932   -6.4065    2.2477 C.ar      1 <0>        -0.2827
     18 C14         3.1855   -7.0788    3.4536 C.ar      1 <0>         0.1771
     19 N3          3.2000   -8.3944    3.5119 N.ar      1 <0>        -0.5185
     20 C15         3.1268   -9.1444    2.4185 C.ar      1 <0>         0.3158
     21 C16         3.0250   -8.5339    1.1563 C.ar      1 <0>        -0.1775
     22 C17         2.9559   -9.6211    0.1789 C.2       1 <0>        -0.1745
     23 C18         3.0113  -10.7701    0.8703 C.2       1 <0>         0.0508
     24 N4          3.1223  -10.5024    2.2094 N.pl3     1 <0>        -0.5790
     25 H1          3.1784  -11.1730    2.9080 H         1 <0>         0.4228
     26 C19         3.4406    1.8258   -0.5736 C.2       1 <0>         0.5721
     27 O2          4.3506    1.1645   -1.0354 O.2       1 <0>        -0.4798
     28 N5          3.3869    3.1525   -0.8048 N.am      1 <0>        -0.6523
     29 C20         4.3146    3.7497   -1.6571 C.ar      1 <0>         0.3491
     30 C21         4.3267    5.1326   -1.8009 C.ar      1 <0>        -0.1745
     31 C22         5.2521    5.7133   -2.6497 C.ar      1 <0>        -0.0783
     32 C23         6.1388    4.8861   -3.3293 C.ar      1 <0>         0.0204
     33 C24         6.0694    3.5184   -3.1378 C.ar      1 <0>         0.1114
     34 N6          5.1785    2.9951   -2.3171 N.ar      1 <0>        -0.4502
     35 F2          7.0579    5.4125   -4.1680 F         1 <0>        -0.1284
     36 H2         -0.3172    1.8421    2.1365 H         1 <0>         0.1451
     37 H3          1.4007    3.0161    0.7852 H         1 <0>         0.1390
     38 H4         -0.2552   -0.6082    2.3133 H         1 <0>         0.1686
     39 H5          4.0784   -0.5739   -0.6873 H         1 <0>         0.4369
     40 H6          1.0875   -2.3915   -0.2875 H         1 <0>         0.1484
     41 H7          0.9060   -4.8449   -0.2427 H         1 <0>         0.1464
     42 H8          5.3494   -2.7030   -0.1343 H         1 <0>         0.1467
     43 H9          3.0835   -5.3268    2.2245 H         1 <0>         0.1399
     44 H10         3.2476   -6.5104    4.3699 H         1 <0>         0.1652
     45 H11         2.8754   -9.5184   -0.8932 H         1 <0>         0.1530
     46 H12         2.9823  -11.7582    0.4353 H         1 <0>         0.1811
     47 H13         2.7028    3.6919   -0.3782 H         1 <0>         0.4201
     48 H14         3.6227    5.7453   -1.2575 H         1 <0>         0.1486
     49 H15         5.2847    6.7848   -2.7815 H         1 <0>         0.1542
     50 H16         6.7557    2.8708   -3.6632 H         1 <0>         0.1735
@<TRIPOS>BOND
     1    1    6 ar
     2    1    2 ar
     3    1   36 1
     4    2    3 ar
     5    2   37 1
     6    3    4 ar
     7    3   26 1
     8    4    5 ar
     9    4    7 1
    10    5    6 ar
    11    6   38 1
    12    7    8 1
    13    7   39 1
    14    8   13 ar
    15    8    9 ar
    16    9   10 ar
    17    9   40 1
    18   10   11 ar
    19   10   41 1
    20   11   12 ar
    21   11   15 1
    22   12   13 ar
    23   12   14 1
    24   13   42 1
    25   15   16 1
    26   16   21 ar
    27   16   17 ar
    28   17   18 ar
    29   17   43 1
    30   18   19 ar
    31   18   44 1
    32   19   20 ar
    33   20   24 1
    34   20   21 ar
    35   21   22 1
    36   22   23 2
    37   22   45 1
    38   23   24 1
    39   23   46 1
    40   24   25 1
    41   26   27 2
    42   26   28 am
    43   28   29 1
    44   28   47 1
    45   29   34 ar
    46   29   30 ar
    47   30   31 ar
    48   30   48 1
    49   31   32 ar
    50   31   49 1
    51   32   33 ar
    52   32   35 1
    53   33   34 ar
    54   33   50 1
@<TRIPOS>MOLECULE
CHEMBL554497
   52    57     0     0     0
SMALL
USER_CHARGES

@<TRIPOS>ATOM
      1 C1         -0.0169    1.3961    0.0097 C.ar      1 <0>        -0.1205
      2 C2          1.1222    2.1259    0.0028 C.ar      1 <0>        -0.0006
      3 C3          2.3783    1.4664   -0.0128 C.ar      1 <0>         0.0704
      4 C4          2.3983   -0.0089   -0.0209 C.ar      1 <0>         0.1303
      5 C5          1.1606   -0.7025   -0.0128 C.ar      1 <0>        -0.6666
      6 C6          0.0021   -0.0041    0.0020 C.ar      1 <0>         0.0873
      7 S1          1.1326   -2.4643   -0.0215 S.o2      1 <0>         2.6770
      8 O1          2.0315   -2.8897    0.9935 O.2       1 <0>        -0.9008
      9 O2         -0.2353   -2.8486   -0.0377 O.2       1 <0>        -0.9148
     10 N1          1.7798   -2.9572   -1.4639 N.pl3     1 <0>        -0.8232
     11 C7          2.9414   -3.6641   -1.6036 C.2       1 <0>         0.0760
     12 C8          3.1798   -3.9021   -2.9043 C.2       1 <0>        -0.1410
     13 C9          2.0812   -3.2984   -3.6612 C.ar      1 <0>         0.1209
     14 C10         1.2257   -2.7216   -2.7021 C.ar      1 <0>         0.0556
     15 C11         0.0747   -2.0702   -3.1287 C.ar      1 <0>        -0.0757
     16 C12        -0.1850   -2.0194   -4.4974 C.ar      1 <0>        -0.0346
     17 C13         0.7093   -2.6181   -5.3881 C.ar      1 <0>         0.1088
     18 N2          1.7948   -3.2209   -4.9581 N.ar      1 <0>        -0.4370
     19 C14        -1.4016   -1.3356   -5.0040 C.2       1 <0>        -0.1731
     20 C15        -2.3792   -0.6892   -4.2228 C.2       1 <0>         0.0761
     21 N3         -3.2912   -0.2113   -5.0274 N.2       1 <0>        -0.2785
     22 N4         -2.9352   -0.5308   -6.3433 N.pl3     1 <0>        -0.3765
     23 C16        -1.7728   -1.2141   -6.3112 C.2       1 <0>         0.0653
     24 C17        -3.6915   -0.1783   -7.5475 C.3       1 <0>         0.1576
     25 C18        -3.5582   -1.2993   -8.5823 C.3       1 <0>        -0.1644
     26 C19        -4.2838   -0.8900   -9.8659 C.3       1 <0>         0.0000
     27 N5         -3.6883    0.3419  -10.3973 N.4       1 <0>        -0.5085
     28 C20        -3.8759    1.4389   -9.4403 C.3       1 <0>        -0.0019
     29 C21        -3.1347    1.1192   -8.1403 C.3       1 <0>        -0.1640
     30 N6          3.6516   -0.3999   -0.0350 N.2       1 <0>        -0.2508
     31 O3          4.4700    0.7570   -0.0366 O.3       1 <0>         0.0864
     32 N7          3.6205    1.8913   -0.0224 N.2       1 <0>        -0.2298
     33 H1         -0.9678    1.9079    0.0261 H         1 <0>         0.1688
     34 H2          1.0757    3.2049    0.0087 H         1 <0>         0.1669
     35 H3         -0.9346   -0.5416    0.0081 H         1 <0>         0.1734
     36 H4          3.5741   -3.9838   -0.7888 H         1 <0>         0.2043
     37 H5          4.0233   -4.4376   -3.3144 H         1 <0>         0.1719
     38 H6         -0.6006   -1.6157   -2.4190 H         1 <0>         0.1375
     39 H7          0.5083   -2.5793   -6.4485 H         1 <0>         0.1579
     40 H8         -2.3758   -0.6038   -3.1462 H         1 <0>         0.1915
     41 H9         -1.2348   -1.5979   -7.1654 H         1 <0>         0.1799
     42 H10        -4.7419   -0.0405   -7.2909 H         1 <0>         0.1220
     43 H11        -2.5039   -1.4710   -8.7991 H         1 <0>         0.1003
     44 H12        -4.0030   -2.2131   -8.1884 H         1 <0>         0.1261
     45 H13        -4.1910   -1.6859  -10.6047 H         1 <0>         0.1448
     46 H14        -5.3379   -0.7188   -9.6480 H         1 <0>         0.1379
     47 H15        -2.7018    0.1976  -10.5527 H         1 <0>         0.4301
     48 H16        -3.4821    2.3623   -9.8650 H         1 <0>         0.1425
     49 H17        -4.9388    1.5605   -9.2315 H         1 <0>         0.1373
     50 H18        -3.2767    1.9341   -7.4305 H         1 <0>         0.1230
     51 H19        -2.0716    0.9977   -8.3480 H         1 <0>         0.0968
     52 H20        -4.1331    0.5795  -11.2712 H         1 <0>         0.4376
@<TRIPOS>BOND
     1    1    6 ar
     2    1    2 ar
     3    1   33 1
     4    2    3 ar
     5    2   34 1
     6    3   32 2
     7    3    4 ar
     8    4    5 ar
     9    4   30 2
    10    5    6 ar
    11    5    7 1
    12    6   35 1
    13    7    8 2
    14    7    9 2
    15    7   10 1
    16   10   14 1
    17   10   11 1
    18   11   12 2
    19   11   36 1
    20   12   13 1
    21   12   37 1
    22   13   18 ar
    23   13   14 ar
    24   14   15 ar
    25   15   16 ar
    26   15   38 1
    27   16   17 ar
    28   16   19 1
    29   17   18 ar
    30   17   39 1
    31   19   23 2
    32   19   20 1
    33   20   21 2
    34   20   40 1
    35   21   22 1
    36   22   23 1
    37   22   24 1
    38   23   41 1
    39   24   29 1
    40   24   25 1
    41   24   42 1
    42   25   26 1
    43   25   43 1
    44   25   44 1
    45   26   27 1
    46   26   45 1
    47   26   46 1
    48   27   28 1
    49   27   47 1
    50   27   52 1
    51   28   29 1
    52   28   48 1
    53   28   49 1
    54   29   50 1
    55   29   51 1
    56   30   31 1
    57   31   32 1
@<TRIPOS>MOLECULE
CHEMBL399674
   64    68     0     0     0
SMALL
USER_CHARGES

@<TRIPOS>ATOM
      1 C1          0.1113    1.6652    0.0391 C.3       1 <0>        -0.0803
      2 C2          0.0826    0.1607    0.1213 C.2       1 <0>        -0.0802
      3 C3          0.0283   -0.7302   -0.9547 C.2       1 <0>         0.0563
      4 C4          0.0186   -1.9962   -0.4498 C.2       1 <0>        -0.0112
      5 N1          0.0649   -1.9310    0.9013 N.pl3     1 <0>        -0.2276
      6 C5          0.1111   -0.6008    1.2748 C.2       1 <0>        -0.0632
      7 C6          0.1704   -0.2882    2.6500 C.2       1 <0>         0.4659
      8 N2          0.1835   -1.2690    3.5348 N.2       1 <0>        -0.5966
      9 C7          0.1420   -2.5471    3.1622 C.2       1 <0>         0.3300
     10 N3          0.0776   -2.9056    1.9091 N.2       1 <0>        -0.3291
     11 O1          0.2139    1.0018    3.0574 O.3       1 <0>        -0.2130
     12 C8          0.1647    1.2514    4.3934 C.ar      1 <0>         0.0266
     13 C9         -1.0524    1.5088    5.0062 C.ar      1 <0>        -0.0572
     14 C10        -1.1034    1.7629    6.3627 C.ar      1 <0>        -0.1403
     15 C11         0.0644    1.7609    7.1145 C.ar      1 <0>         0.1948
     16 C12         1.2836    1.5028    6.5020 C.ar      1 <0>        -0.1489
     17 C13         1.3332    1.2430    5.1450 C.ar      1 <0>         0.1400
     18 F1          2.5182    0.9864    4.5490 F         1 <0>        -0.1237
     19 N4          0.0124    2.0194    8.4894 N.am      1 <0>        -0.6694
     20 C14         1.0115    2.6999    9.0854 C.2       1 <0>         0.6126
     21 O2          1.9990    3.0144    8.4471 O.2       1 <0>        -0.5015
     22 C15         0.9088    3.0611   10.5020 C.2       1 <0>        -0.2753
     23 C16         1.8101    3.7560   11.2944 C.2       1 <0>        -0.0519
     24 C17         1.4328    3.9452   12.6022 C.2       1 <0>        -0.1878
     25 C18         0.2399    3.4554   13.0215 C.2       1 <0>        -0.2082
     26 S1         -0.4107    2.7288   11.6536 S.3       1 <0>         0.2131
     27 O3         -0.0091   -0.3931   -2.2732 O.3       1 <0>        -0.2761
     28 C19        -0.0626   -1.4657   -3.2159 C.3       1 <0>         0.0611
     29 C20        -0.0987   -0.8959   -4.6353 C.3       1 <0>         0.0575
     30 N5          1.1499   -0.1698   -4.9034 N.3       1 <0>        -0.5323
     31 C21         0.9879    0.7578   -6.0319 C.3       1 <0>         0.0270
     32 C22         2.2893    1.5355   -6.2399 C.3       1 <0>        -0.0028
     33 N6          3.3842    0.5946   -6.5105 N.4       1 <0>        -0.3881
     34 C23         3.5500   -0.3092   -5.3645 C.3       1 <0>        -0.0022
     35 C24         2.2590   -1.1023   -5.1493 C.3       1 <0>         0.0213
     36 C25         4.6297    1.3425   -6.7280 C.3       1 <0>        -0.0458
     37 H1          1.1449    2.0062   -0.0204 H         1 <0>         0.0708
     38 H2         -0.4304    1.9910   -0.8489 H         1 <0>         0.0736
     39 H3         -0.3598    2.0867    0.9271 H         1 <0>         0.0727
     40 H4         -0.0197   -2.9042   -1.0333 H         1 <0>         0.1799
     41 H5          0.1549   -3.3130    3.9236 H         1 <0>         0.2275
     42 H6         -1.9609    1.5109    4.4223 H         1 <0>         0.1476
     43 H7         -2.0517    1.9636    6.8390 H         1 <0>         0.1473
     44 H8          2.1920    1.5015    7.0861 H         1 <0>         0.1626
     45 H9         -0.7427    1.7088    9.0130 H         1 <0>         0.4170
     46 H10         2.7490    4.1246   10.9084 H         1 <0>         0.1526
     47 H11         2.0776    4.4763   13.2867 H         1 <0>         0.1437
     48 H12        -0.1946    3.5212   14.0080 H         1 <0>         0.1936
     49 H13         0.8191   -2.0959   -3.0996 H         1 <0>         0.0606
     50 H14        -0.9595   -2.0597   -3.0399 H         1 <0>         0.0737
     51 H15        -0.2060   -1.7107   -5.3513 H         1 <0>         0.0717
     52 H16        -0.9435   -0.2139   -4.7317 H         1 <0>         0.1007
     53 H17         0.7526    0.1944   -6.9348 H         1 <0>         0.0601
     54 H18         0.1781    1.4549   -5.8163 H         1 <0>         0.1255
     55 H19         2.1759    2.2139   -7.0854 H         1 <0>         0.1358
     56 H20         2.5171    2.1094   -5.3416 H         1 <0>         0.1390
     57 H21         4.3712   -0.9984   -5.5612 H         1 <0>         0.1352
     58 H22         3.7713    0.2741   -4.4708 H         1 <0>         0.1388
     59 H23         2.3767   -1.7622   -4.2898 H         1 <0>         0.1219
     60 H24         2.0447   -1.6963   -6.0377 H         1 <0>         0.0613
     61 H25         4.8635    1.9258   -5.8373 H         1 <0>         0.1235
     62 H26         5.4424    0.6445   -6.9288 H         1 <0>         0.1238
     63 H27         4.5074    2.0123   -7.5791 H         1 <0>         0.1243
     64 H28         3.1678    0.0553   -7.3354 H         1 <0>         0.4218
@<TRIPOS>BOND
     1    1    2 1
     2    1   37 1
     3    1   38 1
     4    1   39 1
     5    2    6 2
     6    2    3 1
     7    3    4 2
     8    3   27 1
     9    4    5 1
    10    4   40 1
    11    5   10 1
    12    5    6 1
    13    6    7 1
    14    7    8 2
    15    7   11 1
    16    8    9 1
    17    9   10 2
    18    9   41 1
    19   11   12 1
    20   12   17 ar
    21   12   13 ar
    22   13   14 ar
    23   13   42 1
    24   14   15 ar
    25   14   43 1
    26   15   16 ar
    27   15   19 1
    28   16   17 ar
    29   16   44 1
    30   17   18 1
    31   19   20 am
    32   19   45 1
    33   20   21 2
    34   20   22 1
    35   22   26 1
    36   22   23 2
    37   23   24 1
    38   23   46 1
    39   24   25 2
    40   24   47 1
    41   25   26 1
    42   25   48 1
    43   27   28 1
    44   28   29 1
    45   28   49 1
    46   28   50 1
    47   29   30 1
    48   29   51 1
    49   29   52 1
    50   30   35 1
    51   30   31 1
    52   31   32 1
    53   31   53 1
    54   31   54 1
    55   32   33 1
    56   32   55 1
    57   32   56 1
    58   33   34 1
    59   33   36 1
    60   33   64 1
    61   34   35 1
    62   34   57 1
    63   34   58 1
    64   35   59 1
    65   35   60 1
    66   36   61 1
    67   36   62 1
    68   36   63 1
@<TRIPOS>MOLECULE
CHEMBL502331
   73    78     0     0     0
SMALL
USER_CHARGES

@<TRIPOS>ATOM
      1 C1         -1.3275   -0.6773    2.3607 C.3       1 <0>         0.0444
      2 N1         -0.6194   -1.0187    1.1244 N.am      1 <0>        -0.5171
      3 C2         -1.1096   -0.6158   -0.0644 C.2       1 <0>         0.4040
      4 N2         -0.5102   -0.8983   -1.1903 N.2       1 <0>        -0.5201
      5 C3          0.6219   -1.6020   -1.2229 C.2       1 <0>         0.1855
      6 C4          1.1840   -2.0488   -0.0398 C.2       1 <0>        -0.2437
      7 C5          0.5260   -1.7317    1.1790 C.2       1 <0>         0.5294
      8 O1          0.9825   -2.0982    2.2484 O.2       1 <0>        -0.5223
      9 C6          2.4412   -2.8329   -0.0437 C.ar      1 <0>         0.0248
     10 C7          2.4378   -4.1608    0.3828 C.ar      1 <0>        -0.0870
     11 C8          3.6092   -4.8888    0.3784 C.ar      1 <0>        -0.0858
     12 C9          4.7918   -4.3019   -0.0499 C.ar      1 <0>         0.0425
     13 C10         4.7999   -2.9784   -0.4759 C.ar      1 <0>         0.0990
     14 C11         3.6291   -2.2463   -0.4792 C.ar      1 <0>        -0.1296
     15 F1          5.9528   -2.4102   -0.8922 F         1 <0>        -0.1245
     16 O2          5.9444   -5.0223   -0.0524 O.3       1 <0>        -0.2385
     17 C12         6.8021   -4.8547    0.9842 C.ar      1 <0>         0.1810
     18 C13         6.4637   -4.0650    2.0696 C.ar      1 <0>        -0.2628
     19 C14         7.3626   -3.9124    3.1170 C.ar      1 <0>         0.1665
     20 N3          8.5369   -4.4990    3.1122 N.ar      1 <0>        -0.4926
     21 C15         8.9291   -5.2759    2.0958 C.ar      1 <0>         0.1715
     22 C16         8.0662   -5.4853    0.9926 C.ar      1 <0>        -0.1045
     23 C17         8.4782   -6.3047   -0.0696 C.ar      1 <0>        -0.1523
     24 C18         9.7066   -6.8976   -0.0280 C.ar      1 <0>         0.1138
     25 C19        10.5612   -6.6967    1.0659 C.ar      1 <0>         0.1544
     26 C20        10.1898   -5.8963    2.1071 C.ar      1 <0>        -0.1790
     27 O3         11.7794   -7.2984    1.0843 O.3       1 <0>        -0.2947
     28 C21        12.6055   -7.0562    2.2249 C.3       1 <0>         0.0575
     29 C22        13.9268   -7.8113    2.0673 C.3       1 <0>        -0.1312
     30 C23        14.8113   -7.5519    3.2885 C.3       1 <0>         0.1342
     31 N4         16.0765   -8.2749    3.1375 N.pl3     1 <0>        -0.3816
     32 C24        17.3144   -7.7546    3.2013 C.2       1 <0>         0.2564
     33 N5         18.1725   -8.7248    3.0171 N.2       1 <0>        -0.5461
     34 C25        17.5232   -9.8737    2.8333 C.2       1 <0>         0.2007
     35 N6         16.2372   -9.6503    2.9036 N.2       1 <0>        -0.3166
     36 O4         10.1059   -7.6916   -1.0571 O.3       1 <0>        -0.3012
     37 C26         9.1904   -7.8573   -2.1417 C.3       1 <0>         0.0227
     38 C27        -2.3867    0.1836   -0.0960 C.3       1 <0>        -0.0393
     39 C28        -2.7351    0.5176   -1.5237 C.ar      1 <0>        -0.0683
     40 C29        -2.2580    1.6812   -2.0975 C.ar      1 <0>        -0.0997
     41 C30        -2.5775    1.9875   -3.4071 C.ar      1 <0>        -0.1178
     42 C31        -3.3737    1.1300   -4.1430 C.ar      1 <0>        -0.1148
     43 C32        -3.8501   -0.0341   -3.5694 C.ar      1 <0>        -0.1179
     44 C33        -3.5270   -0.3425   -2.2612 C.ar      1 <0>        -0.0997
     45 H1         -0.7832   -1.0809    3.2145 H         1 <0>         0.1079
     46 H2         -1.3958    0.4066    2.4528 H         1 <0>         0.0880
     47 H3         -2.3303   -1.1037    2.3346 H         1 <0>         0.0883
     48 H4          1.0973   -1.8223   -2.1673 H         1 <0>         0.1719
     49 H5          1.5184   -4.6187    0.7167 H         1 <0>         0.1386
     50 H6          3.6063   -5.9169    0.7091 H         1 <0>         0.1469
     51 H7          3.6342   -1.2197   -0.8147 H         1 <0>         0.1457
     52 H8          5.5046   -3.5694    2.1015 H         1 <0>         0.1398
     53 H9          7.0882   -3.2936    3.9585 H         1 <0>         0.1638
     54 H10         7.8263   -6.4656   -0.9155 H         1 <0>         0.1490
     55 H11        10.8579   -5.7500    2.9429 H         1 <0>         0.1535
     56 H12        12.8052   -5.9879    2.3086 H         1 <0>         0.0717
     57 H13        12.0945   -7.4017    3.1236 H         1 <0>         0.0726
     58 H14        13.7271   -8.8795    1.9836 H         1 <0>         0.0925
     59 H15        14.4378   -7.4657    1.1686 H         1 <0>         0.0829
     60 H16        15.0110   -6.4836    3.3721 H         1 <0>         0.1072
     61 H17        14.3003   -7.8974    4.1872 H         1 <0>         0.0950
     62 H18        17.5579   -6.7167    3.3739 H         1 <0>         0.2199
     63 H19        17.9847  -10.8344    2.6589 H         1 <0>         0.2181
     64 H20         9.6318   -8.5122   -2.8930 H         1 <0>         0.1051
     65 H21         8.2655   -8.3000   -1.7721 H         1 <0>         0.0582
     66 H22         8.9756   -6.8860   -2.5874 H         1 <0>         0.0583
     67 H23        -3.1926   -0.4013    0.3473 H         1 <0>         0.1127
     68 H24        -2.2526    1.1052    0.4703 H         1 <0>         0.1125
     69 H25        -1.6359    2.3512   -1.5226 H         1 <0>         0.1178
     70 H26        -2.2054    2.8970   -3.8551 H         1 <0>         0.1216
     71 H27        -3.6240    1.3697   -5.1659 H         1 <0>         0.1211
     72 H28        -4.4724   -0.7039   -4.1443 H         1 <0>         0.1216
     73 H29        -3.8961   -1.2538   -1.8143 H         1 <0>         0.1179
@<TRIPOS>BOND
     1    1    2 1
     2    1   45 1
     3    1   46 1
     4    1   47 1
     5    2    7 am
     6    2    3 1
     7    3    4 2
     8    3   38 1
     9    4    5 1
    10    5    6 2
    11    5   48 1
    12    6    7 1
    13    6    9 1
    14    7    8 2
    15    9   14 ar
    16    9   10 ar
    17   10   11 ar
    18   10   49 1
    19   11   12 ar
    20   11   50 1
    21   12   13 ar
    22   12   16 1
    23   13   14 ar
    24   13   15 1
    25   14   51 1
    26   16   17 1
    27   17   22 ar
    28   17   18 ar
    29   18   19 ar
    30   18   52 1
    31   19   20 ar
    32   19   53 1
    33   20   21 ar
    34   21   26 ar
    35   21   22 ar
    36   22   23 ar
    37   23   24 ar
    38   23   54 1
    39   24   25 ar
    40   24   36 1
    41   25   26 ar
    42   25   27 1
    43   26   55 1
    44   27   28 1
    45   28   29 1
    46   28   56 1
    47   28   57 1
    48   29   30 1
    49   29   58 1
    50   29   59 1
    51   30   31 1
    52   30   60 1
    53   30   61 1
    54   31   35 1
    55   31   32 1
    56   32   33 2
    57   32   62 1
    58   33   34 1
    59   34   35 2
    60   34   63 1
    61   36   37 1
    62   37   64 1
    63   37   65 1
    64   37   66 1
    65   38   39 1
    66   38   67 1
    67   38   68 1
    68   39   44 ar
    69   39   40 ar
    70   40   41 ar
    71   40   69 1
    72   41   42 ar
    73   41   70 1
    74   42   43 ar
    75   42   71 1
    76   43   44 ar
    77   43   72 1
    78   44   73 1
@<TRIPOS>MOLECULE
CHEMBL456720
   48    51     0     0     0
SMALL
USER_CHARGES

@<TRIPOS>ATOM
      1 C1         -0.0372    1.4645   -0.0010 C.3       1 <0>        -0.0473
      2 N1         -0.0073   -0.0042   -0.0034 N.4       1 <0>        -0.3842
      3 C2         -1.3821   -0.5199   -0.0134 C.3       1 <0>        -0.0238
      4 C3         -1.3528   -2.0473   -0.1315 C.3       1 <0>         0.0962
      5 N2         -0.5114   -2.5826    0.9500 N.pl3     1 <0>        -0.6363
      6 C4          0.8287   -2.0050    1.1362 C.3       1 <0>         0.0963
      7 C5          0.6964   -0.4796    1.1945 C.3       1 <0>        -0.0225
      8 C6         -0.9719   -3.6096    1.7768 C.ar      1 <0>         0.1582
      9 C7         -0.1300   -4.1776    2.7160 C.ar      1 <0>        -0.1467
     10 C8         -0.6401   -5.2062    3.5226 C.ar      1 <0>        -0.0208
     11 C9          0.1611   -5.8345    4.5052 C.ar      1 <0>        -0.0343
     12 C10        -0.3841   -6.8444    5.2782 C.ar      1 <0>        -0.0525
     13 C11        -1.7040   -7.2410    5.0945 C.ar      1 <0>        -0.1667
     14 C12        -2.4943   -6.6513    4.1554 C.ar      1 <0>        -0.0138
     15 C13        -1.9831   -5.6202    3.3470 C.ar      1 <0>         0.0893
     16 N3         -2.7484   -5.0324    2.4217 N.ar      1 <0>        -0.4179
     17 C14        -2.2900   -4.0669    1.6643 C.ar      1 <0>         0.0900
     18 C15        -2.2705   -8.3445    5.9504 C.3       1 <0>         0.5090
     19 F1         -2.8374   -7.7946    7.1051 F         1 <0>        -0.1710
     20 F2         -3.2526   -9.0345    5.2318 F         1 <0>        -0.1716
     21 F3         -1.2472   -9.2286    6.3087 F         1 <0>        -0.1713
     22 C16         1.5681   -5.4160    4.7039 C.ar      1 <0>        -0.0527
     23 C17         2.4281   -5.3105    3.6110 C.ar      1 <0>        -0.1122
     24 C18         3.7377   -4.9202    3.8025 C.ar      1 <0>        -0.1195
     25 C19         4.1983   -4.6344    5.0753 C.ar      1 <0>        -0.1100
     26 C20         3.3500   -4.7372    6.1633 C.ar      1 <0>        -0.1120
     27 C21         2.0366   -5.1205    5.9839 C.ar      1 <0>        -0.0997
     28 H1          0.9829    1.8486   -0.0017 H         1 <0>         0.1260
     29 H2         -0.5594    1.8187   -0.8898 H         1 <0>         0.1265
     30 H3         -0.5572    1.8159    0.8901 H         1 <0>         0.1223
     31 H4         -1.8834   -0.2365    0.9121 H         1 <0>         0.1341
     32 H5         -1.9216   -0.1000   -0.8624 H         1 <0>         0.1447
     33 H6         -2.3647   -2.4415   -0.0376 H         1 <0>         0.1285
     34 H7         -0.9338   -2.3321   -1.0967 H         1 <0>         0.0950
     35 H8          1.2591   -2.3712    2.0683 H         1 <0>         0.1260
     36 H9          1.4680   -2.2855    0.2991 H         1 <0>         0.0938
     37 H10         1.6885   -0.0300    1.2355 H         1 <0>         0.1437
     38 H11         0.1323   -0.1974    2.0834 H         1 <0>         0.1337
     39 H12         0.8899   -3.8395    2.8250 H         1 <0>         0.1491
     40 H13         0.2209   -7.3290    6.0303 H         1 <0>         0.1469
     41 H14        -3.5167   -6.9764    4.0310 H         1 <0>         0.1544
     42 H15        -2.9434   -3.6161    0.9320 H         1 <0>         0.1630
     43 H16         2.0699   -5.5340    2.6170 H         1 <0>         0.1230
     44 H17         4.4047   -4.8381    2.9570 H         1 <0>         0.1264
     45 H18         5.2243   -4.3300    5.2202 H         1 <0>         0.1273
     46 H19         3.7153   -4.5128    7.1546 H         1 <0>         0.1301
     47 H20         1.3741   -5.1961    6.8334 H         1 <0>         0.1282
     48 H21         0.4768   -0.3282   -0.8272 H         1 <0>         0.4256
@<TRIPOS>BOND
     1    1    2 1
     2    1   28 1
     3    1   29 1
     4    1   30 1
     5    2    7 1
     6    2    3 1
     7    2   48 1
     8    3    4 1
     9    3   31 1
    10    3   32 1
    11    4    5 1
    12    4   33 1
    13    4   34 1
    14    5    6 1
    15    5    8 1
    16    6    7 1
    17    6   35 1
    18    6   36 1
    19    7   37 1
    20    7   38 1
    21    8   17 ar
    22    8    9 ar
    23    9   10 ar
    24    9   39 1
    25   10   15 ar
    26   10   11 ar
    27   11   12 ar
    28   11   22 1
    29   12   13 ar
    30   12   40 1
    31   13   14 ar
    32   13   18 1
    33   14   15 ar
    34   14   41 1
    35   15   16 ar
    36   16   17 ar
    37   17   42 1
    38   18   19 1
    39   18   20 1
    40   18   21 1
    41   22   27 ar
    42   22   23 ar
    43   23   24 ar
    44   23   43 1
    45   24   25 ar
    46   24   44 1
    47   25   26 ar
    48   25   45 1
    49   26   27 ar
    50   26   46 1
    51   27   47 1
@<TRIPOS>MOLECULE
CHEMBL456720__1
   47    50     0     0     0
SMALL
USER_CHARGES

@<TRIPOS>ATOM
      1 C1         -0.0373    1.4645   -0.0020 C.3       1 <0>         0.0240
      2 N1         -0.0078   -0.0042   -0.0041 N.3       1 <0>        -0.5422
      3 C2         -1.3646   -0.5579   -0.1070 C.3       1 <0>         0.0372
      4 C3         -1.2803   -2.0772   -0.2882 C.3       1 <0>         0.1204
      5 N2         -0.4627   -2.6330    0.8007 N.pl3     1 <0>        -0.6160
      6 C4          0.8575   -2.0361    1.0540 C.3       1 <0>         0.1225
      7 C5          0.6890   -0.5185    1.1824 C.3       1 <0>         0.0387
      8 C6         -0.9274   -3.6995    1.5735 C.ar      1 <0>         0.1862
      9 C7         -0.1046   -4.2841    2.5194 C.ar      1 <0>        -0.1781
     10 C8         -0.6181   -5.3525    3.2703 C.ar      1 <0>        -0.0104
     11 C9          0.1639   -5.9999    4.2560 C.ar      1 <0>        -0.0388
     12 C10        -0.3839   -7.0491    4.9727 C.ar      1 <0>        -0.0585
     13 C11        -1.6879   -7.4662    4.7300 C.ar      1 <0>        -0.1848
     14 C12        -2.4596   -6.8588    3.7868 C.ar      1 <0>        -0.0071
     15 C13        -1.9450   -5.7878    3.0343 C.ar      1 <0>         0.0705
     16 N3         -2.6921   -5.1823    2.1055 N.ar      1 <0>        -0.4246
     17 C14        -2.2305   -4.1798    1.3998 C.ar      1 <0>         0.0869
     18 C15        -2.2577   -8.6124    5.5254 C.3       1 <0>         0.5110
     19 F1         -2.8747   -8.1178    6.6795 F         1 <0>        -0.1748
     20 F2         -3.1999   -9.2957    4.7493 F         1 <0>        -0.1749
     21 F3         -1.2275   -9.4875    5.8858 F         1 <0>        -0.1748
     22 C16         1.5539   -5.5596    4.5173 C.ar      1 <0>        -0.0467
     23 C17         2.4471   -5.3954    3.4588 C.ar      1 <0>        -0.1073
     24 C18         3.7406   -4.9851    3.7086 C.ar      1 <0>        -0.1182
     25 C19         4.1523   -4.7371    5.0059 C.ar      1 <0>        -0.1139
     26 C20         3.2709   -4.8982    6.0600 C.ar      1 <0>        -0.1161
     27 C21         1.9731   -5.3020    5.8223 C.ar      1 <0>        -0.1028
     28 H1          0.9828    1.8484   -0.0021 H         1 <0>         0.0719
     29 H2         -0.5589    1.8187   -0.8912 H         1 <0>         0.0719
     30 H3         -0.5578    1.8162    0.8888 H         1 <0>         0.0270
     31 H4         -1.9202   -0.3304    0.8028 H         1 <0>         0.0406
     32 H5         -1.8733   -0.1170   -0.9642 H         1 <0>         0.0905
     33 H6         -2.2815   -2.5065   -0.2502 H         1 <0>         0.0892
     34 H7         -0.8168   -2.3063   -1.2478 H         1 <0>         0.0793
     35 H8          1.2697   -2.4384    1.9794 H         1 <0>         0.0873
     36 H9          1.5265   -2.2613    0.2235 H         1 <0>         0.0774
     37 H10         1.6697   -0.0490    1.2603 H         1 <0>         0.0894
     38 H11         0.1048   -0.2915    2.0742 H         1 <0>         0.0399
     39 H12         0.9033   -3.9290    2.6752 H         1 <0>         0.1473
     40 H13         0.2064   -7.5484    5.7267 H         1 <0>         0.1406
     41 H14        -3.4699   -7.2004    3.6160 H         1 <0>         0.1483
     42 H15        -2.8692   -3.7160    0.6627 H         1 <0>         0.1643
     43 H16         2.1271   -5.5894    2.4457 H         1 <0>         0.1251
     44 H17         4.4332   -4.8576    2.8897 H         1 <0>         0.1260
     45 H18         5.1659   -4.4168    5.1965 H         1 <0>         0.1244
     46 H19         3.5981   -4.7031    7.0706 H         1 <0>         0.1264
     47 H20         1.2847   -5.4231    6.6456 H         1 <0>         0.1256
@<TRIPOS>BOND
     1    1    2 1
     2    1   28 1
     3    1   29 1
     4    1   30 1
     5    2    7 1
     6    2    3 1
     7    3    4 1
     8    3   31 1
     9    3   32 1
    10    4    5 1
    11    4   33 1
    12    4   34 1
    13    5    6 1
    14    5    8 1
    15    6    7 1
    16    6   35 1
    17    6   36 1
    18    7   37 1
    19    7   38 1
    20    8   17 ar
    21    8    9 ar
    22    9   10 ar
    23    9   39 1
    24   10   15 ar
    25   10   11 ar
    26   11   12 ar
    27   11   22 1
    28   12   13 ar
    29   12   40 1
    30   13   14 ar
    31   13   18 1
    32   14   15 ar
    33   14   41 1
    34   15   16 ar
    35   16   17 ar
    36   17   42 1
    37   18   19 1
    38   18   20 1
    39   18   21 1
    40   22   27 ar
    41   22   23 ar
    42   23   24 ar
    43   23   43 1
    44   24   25 ar
    45   24   44 1
    46   25   26 ar
    47   25   45 1
    48   26   27 ar
    49   26   46 1
    50   27   47 1
@<TRIPOS>MOLECULE
CHEMBL450209
   80    85     0     0     0
SMALL
USER_CHARGES

@<TRIPOS>ATOM
      1 C1         -1.3437   -0.7131    2.3757 C.3       1 <0>         0.0438
      2 N1         -0.6347   -1.0481    1.1383 N.am      1 <0>        -0.5167
      3 C2         -1.1269   -0.6436   -0.0492 C.2       1 <0>         0.4070
      4 N2         -0.5268   -0.9204   -1.1761 N.2       1 <0>        -0.5201
      5 C3          0.6081   -1.6195   -1.2112 C.2       1 <0>         0.1892
      6 C4          1.1723   -2.0676   -0.0296 C.2       1 <0>        -0.2503
      7 C5          0.5135   -1.7566    1.1904 C.2       1 <0>         0.5304
      8 O1          0.9718   -2.1246    2.2585 O.2       1 <0>        -0.5243
      9 C6          2.4326   -2.8467   -0.0362 C.ar      1 <0>         0.0309
     10 C7          2.4346   -4.1759    0.3865 C.ar      1 <0>        -0.0867
     11 C8          3.6088   -4.8993    0.3796 C.ar      1 <0>        -0.0846
     12 C9          4.7890   -4.3065   -0.0474 C.ar      1 <0>         0.0365
     13 C10         4.7917   -2.9817   -0.4696 C.ar      1 <0>         0.0995
     14 C11         3.6181   -2.2542   -0.4703 C.ar      1 <0>        -0.1296
     15 F1          5.9422   -2.4077   -0.8845 F         1 <0>        -0.1255
     16 O2          5.9444   -5.0223   -0.0524 O.3       1 <0>        -0.2367
     17 C12         6.8018   -4.8544    0.9845 C.ar      1 <0>         0.1834
     18 C13         6.4606   -4.0692    2.0722 C.ar      1 <0>        -0.2589
     19 C14         7.3593   -3.9161    3.1198 C.ar      1 <0>         0.1722
     20 N3          8.5358   -4.4981    3.1129 N.ar      1 <0>        -0.4965
     21 C15         8.9308   -5.2704    2.0941 C.ar      1 <0>         0.1684
     22 C16         8.0683   -5.4800    0.9905 C.ar      1 <0>        -0.1031
     23 C17         8.4832   -6.2947   -0.0741 C.ar      1 <0>        -0.1441
     24 C18         9.7140   -6.8829   -0.0347 C.ar      1 <0>         0.1095
     25 C19        10.5681   -6.6818    1.0595 C.ar      1 <0>         0.1469
     26 C20        10.1939   -5.8859    2.1032 C.ar      1 <0>        -0.1735
     27 O3         11.7887   -7.2788    1.0758 O.3       1 <0>        -0.2967
     28 C21        12.6142   -7.0366    2.2168 C.3       1 <0>         0.0568
     29 C22        13.9384   -7.7860    2.0566 C.3       1 <0>        -0.1482
     30 C23        14.8223   -7.5268    3.2782 C.3       1 <0>        -0.0019
     31 N4         16.0937   -8.2463    3.1244 N.4       1 <0>        -0.3934
     32 C24        16.8952   -7.6416    2.0298 C.3       1 <0>        -0.0091
     33 C25        18.3407   -8.0923    2.3582 C.3       1 <0>        -0.1457
     34 C26        18.3828   -8.0210    3.9019 C.3       1 <0>        -0.1455
     35 C27        16.9114   -8.1045    4.3486 C.3       1 <0>        -0.0082
     36 O4         10.1161   -7.6723   -1.0662 O.3       1 <0>        -0.3051
     37 C28         9.2009   -7.8383   -2.1511 C.3       1 <0>         0.0217
     38 C29        -2.4072    0.1509   -0.0781 C.3       1 <0>        -0.0399
     39 C30        -2.7573    0.4876   -1.5047 C.ar      1 <0>        -0.0696
     40 C31        -2.2850    1.6548   -2.0752 C.ar      1 <0>        -0.0998
     41 C32        -2.6061    1.9637   -3.3838 C.ar      1 <0>        -0.1176
     42 C33        -3.3992    1.1052   -4.1219 C.ar      1 <0>        -0.1140
     43 C34        -3.8708   -0.0624   -3.5517 C.ar      1 <0>        -0.1176
     44 C35        -3.5461   -0.3734   -2.2445 C.ar      1 <0>        -0.0997
     45 H1         -0.7976   -1.1170    3.2282 H         1 <0>         0.1079
     46 H2         -1.4163    0.3703    2.4710 H         1 <0>         0.0889
     47 H3         -2.3449   -1.1433    2.3487 H         1 <0>         0.0893
     48 H4          1.0841   -1.8352   -2.1563 H         1 <0>         0.1718
     49 H5          1.5171   -4.6384    0.7193 H         1 <0>         0.1400
     50 H6          3.6101   -5.9284    0.7072 H         1 <0>         0.1469
     51 H7          3.6190   -1.2266   -0.8028 H         1 <0>         0.1469
     52 H8          5.4996   -3.5775    2.1059 H         1 <0>         0.1432
     53 H9          7.0827   -3.3009    3.9632 H         1 <0>         0.1665
     54 H10         7.8317   -6.4556   -0.9203 H         1 <0>         0.1515
     55 H11        10.8617   -5.7394    2.9392 H         1 <0>         0.1503
     56 H12        12.8098   -5.9678    2.3036 H         1 <0>         0.0762
     57 H13        12.1049   -7.3868    3.1146 H         1 <0>         0.0765
     58 H14        13.7429   -8.8548    1.9698 H         1 <0>         0.0995
     59 H15        14.4477   -7.4358    1.1587 H         1 <0>         0.0990
     60 H16        15.0178   -6.4580    3.3650 H         1 <0>         0.1338
     61 H17        14.3130   -7.8770    4.1761 H         1 <0>         0.1345
     62 H18        16.5810   -8.0321    1.0619 H         1 <0>         0.1366
     63 H19        16.8170   -6.5546    2.0510 H         1 <0>         0.1347
     64 H20        18.5144   -9.1119    2.0142 H         1 <0>         0.0984
     65 H21        19.0671   -7.4075    1.9206 H         1 <0>         0.1169
     66 H22        18.9485   -8.8615    4.3042 H         1 <0>         0.1054
     67 H23        18.8234   -7.0780    4.2253 H         1 <0>         0.1040
     68 H24        16.6319   -7.1938    4.8783 H         1 <0>         0.1314
     69 H25        16.7677   -8.9713    4.9936 H         1 <0>         0.1330
     70 H26         8.2778   -8.2858   -1.7824 H         1 <0>         0.0601
     71 H27         8.9821   -6.8666   -2.5938 H         1 <0>         0.0603
     72 H28         9.6446   -8.4893   -2.9044 H         1 <0>         0.1067
     73 H29        -3.2106   -0.4385    0.3637 H         1 <0>         0.1135
     74 H30        -2.2765    1.0713    0.4909 H         1 <0>         0.1133
     75 H31        -1.6654    2.3255   -1.4985 H         1 <0>         0.1176
     76 H32        -2.2377    2.8760   -3.8293 H         1 <0>         0.1219
     77 H33        -3.6507    1.3469   -5.1440 H         1 <0>         0.1216
     78 H34        -4.4907   -0.7330   -4.1283 H         1 <0>         0.1221
     79 H35        -3.9114   -1.2874   -1.8001 H         1 <0>         0.1179
     80 H36        15.9210   -9.2217    2.9324 H         1 <0>         0.4282
@<TRIPOS>BOND
     1    1    2 1
     2    1   45 1
     3    1   46 1
     4    1   47 1
     5    2    7 am
     6    2    3 1
     7    3    4 2
     8    3   38 1
     9    4    5 1
    10    5    6 2
    11    5   48 1
    12    6    7 1
    13    6    9 1
    14    7    8 2
    15    9   14 ar
    16    9   10 ar
    17   10   11 ar
    18   10   49 1
    19   11   12 ar
    20   11   50 1
    21   12   13 ar
    22   12   16 1
    23   13   14 ar
    24   13   15 1
    25   14   51 1
    26   16   17 1
    27   17   22 ar
    28   17   18 ar
    29   18   19 ar
    30   18   52 1
    31   19   20 ar
    32   19   53 1
    33   20   21 ar
    34   21   26 ar
    35   21   22 ar
    36   22   23 ar
    37   23   24 ar
    38   23   54 1
    39   24   25 ar
    40   24   36 1
    41   25   26 ar
    42   25   27 1
    43   26   55 1
    44   27   28 1
    45   28   29 1
    46   28   56 1
    47   28   57 1
    48   29   30 1
    49   29   58 1
    50   29   59 1
    51   30   31 1
    52   30   60 1
    53   30   61 1
    54   31   35 1
    55   31   32 1
    56   31   80 1
    57   32   33 1
    58   32   62 1
    59   32   63 1
    60   33   34 1
    61   33   64 1
    62   33   65 1
    63   34   35 1
    64   34   66 1
    65   34   67 1
    66   35   68 1
    67   35   69 1
    68   36   37 1
    69   37   70 1
    70   37   71 1
    71   37   72 1
    72   38   39 1
    73   38   73 1
    74   38   74 1
    75   39   44 ar
    76   39   40 ar
    77   40   41 ar
    78   40   75 1
    79   41   42 ar
    80   41   76 1
    81   42   43 ar
    82   42   77 1
    83   43   44 ar
    84   43   78 1
    85   44   79 1
@<TRIPOS>MOLECULE
CHEMBL502283
   55    59     0     0     0
SMALL
USER_CHARGES

@<TRIPOS>ATOM
      1 C1         -0.3586   -6.7422    2.0014 C.ar      1 <0>        -0.0725
      2 C2         -0.7767   -7.6816    2.9248 C.ar      1 <0>        -0.1519
      3 C3         -1.7034   -7.3349    3.8933 C.ar      1 <0>         0.1040
      4 C4         -2.2102   -6.0471    3.9356 C.ar      1 <0>        -0.1520
      5 C5         -1.7906   -5.1093    3.0112 C.ar      1 <0>        -0.0728
      6 C6         -0.8653   -5.4567    2.0446 C.ar      1 <0>        -0.0897
      7 C7         -0.4086   -4.4331    1.0372 C.3       1 <0>        -0.0952
      8 C8         -1.3107   -4.4783   -0.1691 C.2       1 <0>         0.5152
      9 O1         -2.2333   -5.2639   -0.2070 O.2       1 <0>        -0.4491
     10 N1         -1.0919   -3.6453   -1.2058 N.am      1 <0>        -0.6900
     11 C9         -1.8987   -3.6857   -2.2846 C.2       1 <0>         0.6930
     12 O2         -2.8236   -4.4733   -2.3227 O.2       1 <0>        -0.5066
     13 N2         -1.6799   -2.8527   -3.3213 N.am      1 <0>        -0.6751
     14 C10        -2.4514   -2.9653   -4.4854 C.ar      1 <0>         0.1515
     15 C11        -1.8757   -2.7253   -5.7259 C.ar      1 <0>        -0.1107
     16 C12        -2.6359   -2.8356   -6.8737 C.ar      1 <0>        -0.1502
     17 C13        -3.9749   -3.1866   -6.7884 C.ar      1 <0>         0.0981
     18 C14        -4.5523   -3.4275   -5.5479 C.ar      1 <0>         0.1007
     19 C15        -3.7902   -3.3223   -4.3990 C.ar      1 <0>        -0.1198
     20 F1         -5.8568   -3.7690   -5.4647 F         1 <0>        -0.1234
     21 O3         -4.7228   -3.2946   -7.9191 O.3       1 <0>        -0.2252
     22 C16        -4.0864   -3.2098   -9.1143 C.ar      1 <0>         0.1836
     23 C17        -3.9945   -2.0000   -9.7927 C.ar      1 <0>        -0.2111
     24 C18        -3.3369   -1.9544  -11.0090 C.ar      1 <0>         0.1534
     25 N3         -2.7950   -3.0301  -11.5418 N.ar      1 <0>        -0.4942
     26 C19        -2.8506   -4.2135  -10.9406 C.ar      1 <0>         0.3000
     27 C20        -3.4968   -4.3370   -9.6997 C.ar      1 <0>        -0.1411
     28 C21        -3.3755   -5.7494   -9.3103 C.2       1 <0>        -0.0863
     29 C22        -2.6854   -6.3652  -10.2994 C.2       1 <0>         0.0869
     30 N4         -2.3762   -5.4585  -11.2787 N.pl3     1 <0>        -0.5733
     31 H1         -1.8838   -5.6634  -12.0890 H         1 <0>         0.4266
     32 C23        -3.9048   -6.3771   -8.0748 C.2       1 <0>         0.1747
     33 C24        -3.1700   -7.3159   -7.4089 C.2       1 <0>        -0.2452
     34 S1         -4.2695   -7.7001   -6.0525 S.3       1 <0>        -0.0272
     35 C25        -5.5866   -6.5803   -6.5056 C.2       1 <0>         0.3963
     36 N5         -5.0981   -6.0272   -7.6011 N.2       1 <0>        -0.5515
     37 N6         -6.7971   -6.3494   -5.8723 N.pl3     1 <0>        -0.7915
     38 F2         -2.1132   -8.2526    4.7962 F         1 <0>        -0.1382
     39 H2          0.3675   -7.0112    1.2486 H         1 <0>         0.1322
     40 H3         -0.3810   -8.6859    2.8907 H         1 <0>         0.1376
     41 H4         -2.9334   -5.7756    4.6904 H         1 <0>         0.1376
     42 H5         -2.1861   -4.1048    3.0437 H         1 <0>         0.1322
     43 H6         -0.4493   -3.4399    1.4843 H         1 <0>         0.1139
     44 H7          0.6149   -4.6534    0.7339 H         1 <0>         0.1138
     45 H8         -0.3537   -3.0167   -1.1755 H         1 <0>         0.4121
     46 H9         -0.9882   -2.1753   -3.2615 H         1 <0>         0.4118
     47 H10        -0.8330   -2.4519   -5.7933 H         1 <0>         0.1370
     48 H11        -2.1875   -2.6481   -7.8382 H         1 <0>         0.1383
     49 H12        -4.2373   -3.5138   -3.4347 H         1 <0>         0.1594
     50 H13        -4.4321   -1.1054   -9.3750 H         1 <0>         0.1475
     51 H14        -3.2664   -1.0137  -11.5348 H         1 <0>         0.1715
     52 H15        -2.4260   -7.4134  -10.3176 H         1 <0>         0.1870
     53 H16        -2.1936   -7.7164   -7.6386 H         1 <0>         0.1904
     54 H17        -7.0644   -6.9013   -5.1208 H         1 <0>         0.4194
     55 H18        -7.3773   -5.6357   -6.1805 H         1 <0>         0.4180
@<TRIPOS>BOND
     1    1    6 ar
     2    1    2 ar
     3    1   39 1
     4    2    3 ar
     5    2   40 1
     6    3    4 ar
     7    3   38 1
     8    4    5 ar
     9    4   41 1
    10    5    6 ar
    11    5   42 1
    12    6    7 1
    13    7    8 1
    14    7   43 1
    15    7   44 1
    16    8    9 2
    17    8   10 am
    18   10   11 am
    19   10   45 1
    20   11   12 2
    21   11   13 am
    22   13   14 1
    23   13   46 1
    24   14   19 ar
    25   14   15 ar
    26   15   16 ar
    27   15   47 1
    28   16   17 ar
    29   16   48 1
    30   17   18 ar
    31   17   21 1
    32   18   19 ar
    33   18   20 1
    34   19   49 1
    35   21   22 1
    36   22   27 ar
    37   22   23 ar
    38   23   24 ar
    39   23   50 1
    40   24   25 ar
    41   24   51 1
    42   25   26 ar
    43   26   30 1
    44   26   27 ar
    45   27   28 1
    46   28   29 2
    47   28   32 1
    48   29   30 1
    49   29   52 1
    50   30   31 1
    51   32   36 1
    52   32   33 2
    53   33   34 1
    54   33   53 1
    55   34   35 1
    56   35   36 2
    57   35   37 1
    58   37   54 1
    59   37   55 1
@<TRIPOS>MOLECULE
CHEMBL499886
   51    54     0     0     0
SMALL
USER_CHARGES

@<TRIPOS>ATOM
      1 C1         -4.1341   -6.0383    2.6131 C.ar      1 <0>        -0.0725
      2 C2         -4.6262   -7.0390    3.4293 C.ar      1 <0>        -0.1519
      3 C3         -5.8710   -6.9006    4.0197 C.ar      1 <0>         0.1047
      4 C4         -6.6213   -5.7596    3.7914 C.ar      1 <0>        -0.1519
      5 C5         -6.1271   -4.7602    2.9747 C.ar      1 <0>        -0.0726
      6 C6         -4.8841   -4.8995    2.3859 C.ar      1 <0>        -0.0912
      7 C7         -4.3464   -3.8090    1.4956 C.3       1 <0>        -0.0943
      8 C8         -4.7703   -4.0674    0.0727 C.2       1 <0>         0.5150
      9 O1         -5.4426   -5.0408   -0.1922 O.2       1 <0>        -0.4480
     10 N1         -4.4020   -3.2163   -0.9053 N.am      1 <0>        -0.6888
     11 C9         -4.7811   -3.4474   -2.1779 C.2       1 <0>         0.6943
     12 O2         -5.4552   -4.4234   -2.4435 O.2       1 <0>        -0.5052
     13 N2         -4.4128   -2.5964   -3.1559 N.am      1 <0>        -0.6775
     14 C10        -4.7366   -2.8793   -4.4893 C.ar      1 <0>         0.1960
     15 C11        -3.8544   -2.5372   -5.5056 C.ar      1 <0>        -0.1390
     16 C12        -4.1729   -2.8163   -6.8203 C.ar      1 <0>        -0.0692
     17 C13        -5.3741   -3.4380   -7.1266 C.ar      1 <0>         0.0291
     18 C14        -6.2581   -3.7805   -6.1110 C.ar      1 <0>         0.1216
     19 C15        -5.9369   -3.5068   -4.7942 C.ar      1 <0>        -0.1470
     20 F1         -7.4287   -4.3852   -6.4093 F         1 <0>        -0.1199
     21 O3         -5.6870   -3.7120   -8.4214 O.3       1 <0>        -0.2373
     22 C16        -6.4176   -2.7975   -9.1074 C.ar      1 <0>         0.2087
     23 C17        -6.9226   -1.6663   -8.4782 C.ar      1 <0>        -0.2820
     24 C18        -7.6629   -0.7562   -9.2120 C.ar      1 <0>         0.1774
     25 N3         -7.9021   -0.9344  -10.4947 N.ar      1 <0>        -0.5149
     26 C19        -7.4464   -1.9951  -11.1511 C.ar      1 <0>         0.3201
     27 C20        -6.6816   -2.9615  -10.4747 C.ar      1 <0>        -0.1653
     28 C21        -6.3351   -3.9793  -11.4678 C.2       1 <0>        -0.1563
     29 C22        -6.8780   -3.5884  -12.6314 C.2       1 <0>         0.0795
     30 N4         -7.5522   -2.4084  -12.4571 N.pl3     1 <0>        -0.5772
     31 H1         -8.0259   -1.9300  -13.1554 H         1 <0>         0.4248
     32 C23        -5.5238   -5.2267  -11.2296 C.3       1 <0>         0.1547
     33 O4         -5.4083   -5.9602  -12.4505 O.3       1 <0>        -0.5747
     34 F2         -6.3533   -7.8785    4.8175 F         1 <0>        -0.1378
     35 H2         -3.1613   -6.1441    2.1561 H         1 <0>         0.1324
     36 H3         -4.0402   -7.9288    3.6064 H         1 <0>         0.1379
     37 H4         -7.5925   -5.6507    4.2510 H         1 <0>         0.1379
     38 H5         -6.7124   -3.8703    2.7962 H         1 <0>         0.1324
     39 H6         -4.7392   -2.8462    1.8225 H         1 <0>         0.1146
     40 H7         -3.2580   -3.7961    1.5538 H         1 <0>         0.1145
     41 H8         -3.8641   -2.4375   -0.6934 H         1 <0>         0.4135
     42 H9         -3.9236   -1.7880   -2.9366 H         1 <0>         0.4153
     43 H10        -2.9191   -2.0524   -5.2680 H         1 <0>         0.1455
     44 H11        -3.4862   -2.5499   -7.6101 H         1 <0>         0.1498
     45 H12        -6.6215   -3.7767   -4.0038 H         1 <0>         0.1616
     46 H13        -6.7396   -1.4992   -7.4270 H         1 <0>         0.1390
     47 H14        -8.0546    0.1221   -8.7204 H         1 <0>         0.1666
     48 H15        -6.8021   -4.1278  -13.5639 H         1 <0>         0.1861
     49 H16        -4.5302   -4.9519  -10.8755 H         1 <0>         0.0574
     50 H17        -6.0187   -5.8444  -10.4801 H         1 <0>         0.0583
     51 H18        -4.8974   -6.7774  -12.3716 H         1 <0>         0.3861
@<TRIPOS>BOND
     1    1    6 ar
     2    1    2 ar
     3    1   35 1
     4    2    3 ar
     5    2   36 1
     6    3    4 ar
     7    3   34 1
     8    4    5 ar
     9    4   37 1
    10    5    6 ar
    11    5   38 1
    12    6    7 1
    13    7    8 1
    14    7   39 1
    15    7   40 1
    16    8    9 2
    17    8   10 am
    18   10   11 am
    19   10   41 1
    20   11   12 2
    21   11   13 am
    22   13   14 1
    23   13   42 1
    24   14   19 ar
    25   14   15 ar
    26   15   16 ar
    27   15   43 1
    28   16   17 ar
    29   16   44 1
    30   17   18 ar
    31   17   21 1
    32   18   19 ar
    33   18   20 1
    34   19   45 1
    35   21   22 1
    36   22   27 ar
    37   22   23 ar
    38   23   24 ar
    39   23   46 1
    40   24   25 ar
    41   24   47 1
    42   25   26 ar
    43   26   30 1
    44   26   27 ar
    45   27   28 1
    46   28   29 2
    47   28   32 1
    48   29   30 1
    49   29   48 1
    50   30   31 1
    51   32   33 1
    52   32   49 1
    53   32   50 1
    54   33   51 1
@<TRIPOS>MOLECULE
CHEMBL508142
   70    74     0     0     0
SMALL
USER_CHARGES

@<TRIPOS>ATOM
      1 C1         -0.3682    1.6296    0.1805 C.3       1 <0>        -0.0456
      2 N1         -0.3058    0.1626    0.1361 N.4       1 <0>        -0.3889
      3 C2         -1.6680   -0.3861    0.1615 C.3       1 <0>        -0.0017
      4 C3         -1.6041   -1.9136    0.0962 C.3       1 <0>         0.0246
      5 N2         -0.8328   -2.4182    1.2410 N.3       1 <0>        -0.5253
      6 C4          0.5259   -1.8577    1.2428 C.3       1 <0>         0.0189
      7 C5          0.4444   -0.3307    1.2986 C.3       1 <0>         0.0001
      8 C6         -0.7965   -3.8868    1.2452 C.3       1 <0>         0.0096
      9 C7         -0.2163   -4.3712    2.5489 C.2       1 <0>         0.4170
     10 O1          0.1329   -3.5711    3.3925 O.2       1 <0>        -0.4241
     11 C8         -0.0784   -5.7614    2.7903 C.2       1 <0>        -0.2493
     12 C9         -0.4180   -6.7799    1.9420 C.2       1 <0>         0.1407
     13 N3         -0.1380   -7.9695    2.5240 N.pl3     1 <0>        -0.5544
     14 H1         -0.2930   -8.8346    2.1137 H         1 <0>         0.4320
     15 C10         0.3974   -7.7821    3.7793 C.ar      1 <0>         0.3096
     16 C11         0.4658   -6.3993    4.0033 C.ar      1 <0>        -0.1361
     17 C12         0.9808   -5.9200    5.2116 C.ar      1 <0>         0.2106
     18 C13         1.4123   -6.8505    6.1511 C.ar      1 <0>        -0.2697
     19 C14         1.3171   -8.1988    5.8591 C.ar      1 <0>         0.1827
     20 N4          0.8209   -8.6238    4.7152 N.ar      1 <0>        -0.5089
     21 O2          1.0577   -4.5882    5.4598 O.3       1 <0>        -0.2087
     22 C15         1.4703   -4.1915    6.6935 C.ar      1 <0>         0.0269
     23 C16         0.5376   -3.9330    7.6866 C.ar      1 <0>        -0.0682
     24 C17         0.9557   -3.5301    8.9398 C.ar      1 <0>        -0.1150
     25 C18         2.3104   -3.3833    9.2064 C.ar      1 <0>         0.1993
     26 C19         3.2452   -3.6418    8.2130 C.ar      1 <0>        -0.1709
     27 C20         2.8265   -4.0507    6.9603 C.ar      1 <0>         0.1168
     28 F1          3.7355   -4.3082    5.9946 F         1 <0>        -0.1238
     29 N5          2.7340   -2.9741   10.4777 N.am      1 <0>        -0.6792
     30 C21         2.0614   -3.3766   11.5740 C.2       1 <0>         0.6965
     31 O3          1.0467   -4.0353   11.4568 O.2       1 <0>        -0.5054
     32 N6          2.5139   -3.0487   12.8005 N.am      1 <0>        -0.6891
     33 C22         1.8413   -3.4512   13.8968 C.2       1 <0>         0.5157
     34 O4          0.8292   -4.1082   13.7799 O.2       1 <0>        -0.4475
     35 C23         2.3474   -3.0845   15.2682 C.3       1 <0>        -0.0942
     36 C24         1.4218   -3.6518   16.3134 C.ar      1 <0>        -0.0929
     37 C25         0.3448   -2.9085   16.7591 C.ar      1 <0>        -0.0725
     38 C26        -0.5048   -3.4279   17.7173 C.ar      1 <0>        -0.1521
     39 C27        -0.2771   -4.6933   18.2309 C.ar      1 <0>         0.1062
     40 C28         0.8019   -5.4370   17.7838 C.ar      1 <0>        -0.1518
     41 C29         1.6472   -4.9176   16.8217 C.ar      1 <0>        -0.0723
     42 F2         -1.1069   -5.2019   19.1680 F         1 <0>        -0.1369
     43 H2          0.6426    2.0371    0.1603 H         1 <0>         0.1237
     44 H3         -0.9249    1.9959   -0.6821 H         1 <0>         0.1236
     45 H4         -0.8686    1.9444    1.0962 H         1 <0>         0.1230
     46 H5         -2.1650   -0.0823    1.0828 H         1 <0>         0.1381
     47 H6         -2.2276   -0.0090   -0.6945 H         1 <0>         0.1359
     48 H7         -2.6143   -2.3217    0.1301 H         1 <0>         0.1242
     49 H8         -1.1195   -2.2181   -0.8314 H         1 <0>         0.0610
     50 H9          1.0697   -2.2250    2.1131 H         1 <0>         0.1381
     51 H10         1.0456   -2.1613    0.3340 H         1 <0>         0.0568
     52 H11         1.4509    0.0876    1.2856 H         1 <0>         0.1350
     53 H12        -0.0633   -0.0271    2.2141 H         1 <0>         0.1393
     54 H13        -1.8084   -4.2755    1.1310 H         1 <0>         0.1186
     55 H14        -0.1773   -4.2372    0.4194 H         1 <0>         0.0773
     56 H15        -0.8450   -6.6539    0.9581 H         1 <0>         0.1919
     57 H16         1.8172   -6.5238    7.0975 H         1 <0>         0.1439
     58 H17         1.6522   -8.9209    6.5888 H         1 <0>         0.1724
     59 H18        -0.5164   -4.0466    7.4800 H         1 <0>         0.1468
     60 H19         0.2285   -3.3286    9.7125 H         1 <0>         0.1571
     61 H20         4.2991   -3.5278    8.4199 H         1 <0>         0.1500
     62 H21         3.5113   -2.4011   10.5687 H         1 <0>         0.4147
     63 H22         3.3237   -2.5229   12.8941 H         1 <0>         0.4140
     64 H23         3.3478   -3.4941   15.4078 H         1 <0>         0.1149
     65 H24         2.3824   -1.9993   15.3643 H         1 <0>         0.1148
     66 H25         0.1676   -1.9213   16.3585 H         1 <0>         0.1319
     67 H26        -1.3460   -2.8468   18.0655 H         1 <0>         0.1382
     68 H27         0.9806   -6.4240   18.1840 H         1 <0>         0.1384
     69 H28         2.4863   -5.4992   16.4696 H         1 <0>         0.1323
     70 H29         0.1579   -0.1286   -0.7114 H         1 <0>         0.4213
@<TRIPOS>BOND
     1    1    2 1
     2    1   43 1
     3    1   44 1
     4    1   45 1
     5    2    7 1
     6    2    3 1
     7    2   70 1
     8    3    4 1
     9    3   46 1
    10    3   47 1
    11    4    5 1
    12    4   48 1
    13    4   49 1
    14    5    6 1
    15    5    8 1
    16    6    7 1
    17    6   50 1
    18    6   51 1
    19    7   52 1
    20    7   53 1
    21    8    9 1
    22    8   54 1
    23    8   55 1
    24    9   10 2
    25    9   11 1
    26   11   16 1
    27   11   12 2
    28   12   13 1
    29   12   56 1
    30   13   14 1
    31   13   15 1
    32   15   20 ar
    33   15   16 ar
    34   16   17 ar
    35   17   18 ar
    36   17   21 1
    37   18   19 ar
    38   18   57 1
    39   19   20 ar
    40   19   58 1
    41   21   22 1
    42   22   27 ar
    43   22   23 ar
    44   23   24 ar
    45   23   59 1
    46   24   25 ar
    47   24   60 1
    48   25   26 ar
    49   25   29 1
    50   26   27 ar
    51   26   61 1
    52   27   28 1
    53   29   30 am
    54   29   62 1
    55   30   31 2
    56   30   32 am
    57   32   33 am
    58   32   63 1
    59   33   34 2
    60   33   35 1
    61   35   36 1
    62   35   64 1
    63   35   65 1
    64   36   41 ar
    65   36   37 ar
    66   37   38 ar
    67   37   66 1
    68   38   39 ar
    69   38   67 1
    70   39   40 ar
    71   39   42 1
    72   40   41 ar
    73   40   68 1
    74   41   69 1
@<TRIPOS>MOLECULE
CHEMBL508142__1
   69    73     0     0     0
SMALL
USER_CHARGES

@<TRIPOS>ATOM
      1 C1         -0.3770    1.6178    0.1748 C.3       1 <0>         0.0248
      2 N1         -0.3124    0.1508    0.1323 N.3       1 <0>        -0.5475
      3 C2         -1.6590   -0.4339    0.0670 C.3       1 <0>         0.0564
      4 C3         -1.5463   -1.9553   -0.0558 C.3       1 <0>         0.0566
      5 N2         -0.8012   -2.4832    1.0957 N.3       1 <0>        -0.5261
      6 C4          0.5454   -1.8985    1.1610 C.3       1 <0>         0.0532
      7 C5          0.4326   -0.3771    1.2838 C.3       1 <0>         0.0589
      8 C6         -0.7367   -3.9502    1.0532 C.3       1 <0>         0.0115
      9 C7         -0.1879   -4.4669    2.3582 C.2       1 <0>         0.4105
     10 O1          0.1195   -3.6888    3.2379 O.2       1 <0>        -0.4176
     11 C8         -0.0306   -5.8615    2.5585 C.2       1 <0>        -0.2348
     12 C9         -0.3240   -6.8574    1.6672 C.2       1 <0>         0.1319
     13 N3         -0.0392   -8.0603    2.2187 N.pl3     1 <0>        -0.5582
     14 H1         -0.1647   -8.9141    1.7758 H         1 <0>         0.4290
     15 C10         0.4533   -7.9048    3.4958 C.ar      1 <0>         0.3088
     16 C11         0.4880   -6.5292    3.7666 C.ar      1 <0>        -0.1372
     17 C12         0.9559   -6.0808    5.0055 C.ar      1 <0>         0.2143
     18 C13         1.3760   -7.0339    5.9275 C.ar      1 <0>        -0.2758
     19 C14         1.3160   -8.3732    5.5889 C.ar      1 <0>         0.1780
     20 N4          0.8638   -8.7692    4.4167 N.ar      1 <0>        -0.5124
     21 O2          0.9993   -4.7568    5.2993 O.3       1 <0>        -0.2051
     22 C15         1.3658   -4.3936    6.5576 C.ar      1 <0>         0.0337
     23 C16         0.3979   -4.1853    7.5287 C.ar      1 <0>        -0.0686
     24 C17         0.7691   -3.8165    8.8068 C.ar      1 <0>        -0.1146
     25 C18         2.1119   -3.6539    9.1208 C.ar      1 <0>         0.1929
     26 C19         3.0818   -3.8621    8.1495 C.ar      1 <0>        -0.1702
     27 C20         2.7101   -4.2369    6.8716 C.ar      1 <0>         0.1170
     28 F1          3.6534   -4.4456    5.9272 F         1 <0>        -0.1223
     29 N5          2.4879   -3.2792   10.4174 N.am      1 <0>        -0.6775
     30 C21         1.7895   -3.7301   11.4783 C.2       1 <0>         0.6957
     31 O3          0.7919   -4.4031   11.3077 O.2       1 <0>        -0.5055
     32 N6          2.1974   -3.4347   12.7284 N.am      1 <0>        -0.6893
     33 C22         1.4991   -3.8856   13.7894 C.2       1 <0>         0.5156
     34 O4          0.5040   -4.5568   13.6191 O.2       1 <0>        -0.4486
     35 C23         1.9552   -3.5553   15.1872 C.3       1 <0>        -0.0949
     36 C24         1.0089   -4.1738   16.1837 C.ar      1 <0>        -0.0908
     37 C25        -0.0956   -3.4654   16.6190 C.ar      1 <0>        -0.0724
     38 C26        -0.9643   -4.0317   17.5325 C.ar      1 <0>        -0.1520
     39 C27        -0.7282   -5.3091   18.0116 C.ar      1 <0>         0.1045
     40 C28         0.3783   -6.0177   17.5749 C.ar      1 <0>        -0.1521
     41 C29         1.2428   -5.4513   16.6574 C.ar      1 <0>        -0.0725
     42 F2         -1.5765   -5.8636   18.9050 F         1 <0>        -0.1380
     43 H2          0.6332    2.0267    0.1547 H         1 <0>         0.0685
     44 H3         -0.9337    1.9821   -0.6886 H         1 <0>         0.0681
     45 H4         -0.8784    1.9331    1.0898 H         1 <0>         0.0266
     46 H5         -2.2092   -0.1821    0.9737 H         1 <0>         0.0435
     47 H6         -2.1861   -0.0371   -0.8006 H         1 <0>         0.0798
     48 H7         -2.5441   -2.3936   -0.0752 H         1 <0>         0.0807
     49 H8         -1.0199   -2.2078   -0.9763 H         1 <0>         0.0436
     50 H9          1.0725   -2.2953    2.0286 H         1 <0>         0.0960
     51 H10         1.0956   -2.1503    0.2543 H         1 <0>         0.0376
     52 H11         1.4304    0.0611    1.3032 H         1 <0>         0.0783
     53 H12        -0.0938   -0.1246    2.2042 H         1 <0>         0.0448
     54 H13        -1.7368   -4.3535    0.8946 H         1 <0>         0.1054
     55 H14        -0.0855   -4.2617    0.2365 H         1 <0>         0.0657
     56 H15        -0.7227   -6.7067    0.6749 H         1 <0>         0.1932
     57 H16         1.7450   -6.7313    6.8964 H         1 <0>         0.1416
     58 H17         1.6423   -9.1129    6.3050 H         1 <0>         0.1690
     59 H18        -0.6468   -4.3112    7.2852 H         1 <0>         0.1476
     60 H19         0.0146   -3.6541    9.5624 H         1 <0>         0.1557
     61 H20         4.1263   -3.7357    8.3932 H         1 <0>         0.1487
     62 H21         3.2508   -2.6954   10.5516 H         1 <0>         0.4138
     63 H22         2.9936   -2.8976   12.8646 H         1 <0>         0.4133
     64 H23         2.9586   -3.9509   15.3450 H         1 <0>         0.1144
     65 H24         1.9662   -2.4734   15.3197 H         1 <0>         0.1145
     66 H25        -0.2793   -2.4689   16.2454 H         1 <0>         0.1324
     67 H26        -1.8269   -3.4780   17.8727 H         1 <0>         0.1377
     68 H27         0.5637   -7.0140   17.9482 H         1 <0>         0.1378
     69 H28         2.1035   -6.0055   16.3132 H         1 <0>         0.1324
@<TRIPOS>BOND
     1    1    2 1
     2    1   43 1
     3    1   44 1
     4    1   45 1
     5    2    7 1
     6    2    3 1
     7    3    4 1
     8    3   46 1
     9    3   47 1
    10    4    5 1
    11    4   48 1
    12    4   49 1
    13    5    6 1
    14    5    8 1
    15    6    7 1
    16    6   50 1
    17    6   51 1
    18    7   52 1
    19    7   53 1
    20    8    9 1
    21    8   54 1
    22    8   55 1
    23    9   10 2
    24    9   11 1
    25   11   16 1
    26   11   12 2
    27   12   13 1
    28   12   56 1
    29   13   14 1
    30   13   15 1
    31   15   20 ar
    32   15   16 ar
    33   16   17 ar
    34   17   18 ar
    35   17   21 1
    36   18   19 ar
    37   18   57 1
    38   19   20 ar
    39   19   58 1
    40   21   22 1
    41   22   27 ar
    42   22   23 ar
    43   23   24 ar
    44   23   59 1
    45   24   25 ar
    46   24   60 1
    47   25   26 ar
    48   25   29 1
    49   26   27 ar
    50   26   61 1
    51   27   28 1
    52   29   30 am
    53   29   62 1
    54   30   31 2
    55   30   32 am
    56   32   33 am
    57   32   63 1
    58   33   34 2
    59   33   35 1
    60   35   36 1
    61   35   64 1
    62   35   65 1
    63   36   41 ar
    64   36   37 ar
    65   37   38 ar
    66   37   66 1
    67   38   39 ar
    68   38   67 1
    69   39   40 ar
    70   39   42 1
    71   40   41 ar
    72   40   68 1
    73   41   69 1
@<TRIPOS>MOLECULE
CHEMBL502232
   63    67     0     0     0
SMALL
USER_CHARGES

@<TRIPOS>ATOM
      1 C1          0.9327    6.0827    6.2353 C.ar      1 <0>        -0.1737
      2 C2          2.1899    6.0698    5.6502 C.ar      1 <0>        -0.0561
      3 C3          2.2745    5.9650    4.2705 C.ar      1 <0>        -0.1627
      4 C4          1.1112    5.8774    3.5291 C.ar      1 <0>         0.1188
      5 N1         -0.0676    5.8932    4.1195 N.ar      1 <0>        -0.4849
      6 C5         -0.1860    5.9913    5.4293 C.ar      1 <0>         0.1057
      7 C6          3.6178    5.9473    3.5876 C.3       1 <0>         0.1702
      8 N2          4.0892    4.5649    3.4731 N.am      1 <0>        -0.7304
      9 C7          5.2767    4.3039    2.8917 C.2       1 <0>         0.5831
     10 O1          5.9573    5.2163    2.4619 O.2       1 <0>        -0.5100
     11 C8          5.7496    2.9173    2.7768 C.2       1 <0>        -0.1984
     12 C9          5.1024    1.7953    3.2019 C.2       1 <0>         0.1089
     13 N3          5.8526    0.7007    2.9211 N.pl3     1 <0>        -0.5609
     14 H1          5.5981   -0.2118    3.1293 H         1 <0>         0.4285
     15 C10         7.0251    1.0653    2.2985 C.ar      1 <0>         0.3134
     16 C11         7.0143    2.4627    2.1736 C.ar      1 <0>        -0.1378
     17 C12         8.0947    3.1098    1.5647 C.ar      1 <0>         0.2178
     18 C13         9.1457    2.3266    1.1001 C.ar      1 <0>        -0.2792
     19 C14         9.0851    0.9537    1.2553 C.ar      1 <0>         0.1806
     20 N4          8.0591    0.3696    1.8395 N.ar      1 <0>        -0.5141
     21 O2          8.1162    4.4599    1.4310 O.3       1 <0>        -0.2021
     22 C15         9.2408    5.0336    0.9252 C.ar      1 <0>         0.0340
     23 C16        10.2331    5.4869    1.7814 C.ar      1 <0>        -0.0692
     24 C17        11.3757    6.0692    1.2687 C.ar      1 <0>        -0.1148
     25 C18        11.5318    6.2017   -0.1047 C.ar      1 <0>         0.1923
     26 C19        10.5392    5.7482   -0.9629 C.ar      1 <0>        -0.1701
     27 C20         9.3980    5.1602   -0.4494 C.ar      1 <0>         0.1171
     28 F1          8.4338    4.7139   -1.2838 F         1 <0>        -0.1219
     29 N5         12.6907    6.7932   -0.6242 N.am      1 <0>        -0.6774
     30 C21        13.8771    6.6008   -0.0143 C.2       1 <0>         0.6957
     31 O3         13.9312    5.9737    1.0255 O.2       1 <0>        -0.5056
     32 N6         15.0034    7.1039   -0.5573 N.am      1 <0>        -0.6893
     33 C22        16.1898    6.9115    0.0526 C.2       1 <0>         0.5156
     34 O4         16.2438    6.2859    1.0897 O.2       1 <0>        -0.4487
     35 C23        17.4491    7.4739   -0.5545 C.3       1 <0>        -0.0950
     36 C24        18.6276    7.1210    0.3160 C.ar      1 <0>        -0.0907
     37 C25        19.0101    7.9699    1.3379 C.ar      1 <0>        -0.0724
     38 C26        20.0903    7.6471    2.1372 C.ar      1 <0>        -0.1521
     39 C27        20.7895    6.4730    1.9142 C.ar      1 <0>         0.1044
     40 C28        20.4054    5.6236    0.8904 C.ar      1 <0>        -0.1521
     41 C29        19.3217    5.9459    0.0958 C.ar      1 <0>        -0.0724
     42 F2         21.8459    6.1567    2.6946 F         1 <0>        -0.1380
     43 H2          0.8293    6.1587    7.3076 H         1 <0>         0.1382
     44 H3          3.0819    6.1401    6.2551 H         1 <0>         0.1371
     45 H4          1.1686    5.7955    2.4537 H         1 <0>         0.1575
     46 H5         -1.1687    6.0002    5.8772 H         1 <0>         0.1580
     47 H6          3.5254    6.3833    2.5929 H         1 <0>         0.0816
     48 H7          4.3310    6.5270    4.1736 H         1 <0>         0.0799
     49 H8          3.5466    3.8375    3.8157 H         1 <0>         0.3964
     50 H9          4.1383    1.7802    3.6886 H         1 <0>         0.1868
     51 H10         9.9993    2.7853    0.6233 H         1 <0>         0.1415
     52 H11         9.9018    0.3462    0.8942 H         1 <0>         0.1690
     53 H12        10.1121    5.3849    2.8498 H         1 <0>         0.1474
     54 H13        12.1480    6.4219    1.9363 H         1 <0>         0.1556
     55 H14        10.6601    5.8514   -2.0311 H         1 <0>         0.1487
     56 H15        12.6392    7.3413   -1.4229 H         1 <0>         0.4138
     57 H16        14.9602    7.6043   -1.3871 H         1 <0>         0.4133
     58 H17        17.5929    7.0518   -1.5492 H         1 <0>         0.1144
     59 H18        17.3640    8.5580   -0.6288 H         1 <0>         0.1145
     60 H19        18.4648    8.8858    1.5114 H         1 <0>         0.1324
     61 H20        20.3892    8.3106    2.9352 H         1 <0>         0.1377
     62 H21        20.9503    4.7077    0.7154 H         1 <0>         0.1377
     63 H22        19.0192    5.2813   -0.7000 H         1 <0>         0.1324
@<TRIPOS>BOND
     1    1    6 ar
     2    1    2 ar
     3    1   43 1
     4    2    3 ar
     5    2   44 1
     6    3    4 ar
     7    3    7 1
     8    4    5 ar
     9    4   45 1
    10    5    6 ar
    11    6   46 1
    12    7    8 1
    13    7   47 1
    14    7   48 1
    15    8    9 am
    16    8   49 1
    17    9   10 2
    18    9   11 1
    19   11   16 1
    20   11   12 2
    21   12   13 1
    22   12   50 1
    23   13   14 1
    24   13   15 1
    25   15   20 ar
    26   15   16 ar
    27   16   17 ar
    28   17   18 ar
    29   17   21 1
    30   18   19 ar
    31   18   51 1
    32   19   20 ar
    33   19   52 1
    34   21   22 1
    35   22   27 ar
    36   22   23 ar
    37   23   24 ar
    38   23   53 1
    39   24   25 ar
    40   24   54 1
    41   25   26 ar
    42   25   29 1
    43   26   27 ar
    44   26   55 1
    45   27   28 1
    46   29   30 am
    47   29   56 1
    48   30   31 2
    49   30   32 am
    50   32   33 am
    51   32   57 1
    52   33   34 2
    53   33   35 1
    54   35   36 1
    55   35   58 1
    56   35   59 1
    57   36   41 ar
    58   36   37 ar
    59   37   38 ar
    60   37   60 1
    61   38   39 ar
    62   38   61 1
    63   39   40 ar
    64   39   42 1
    65   40   41 ar
    66   40   62 1
    67   41   63 1
@<TRIPOS>MOLECULE
CHEMBL495899
   37    40     0     0     0
SMALL
USER_CHARGES

@<TRIPOS>ATOM
      1 C1         -0.0167    1.3790    0.0096 C.ar      1 <0>        -0.1061
      2 C2          1.1687    2.0919    0.0021 C.ar      1 <0>        -0.1153
      3 C3          2.3774    1.4257   -0.0129 C.ar      1 <0>        -0.0955
      4 C4          2.4021    0.0327   -0.0206 C.ar      1 <0>        -0.0527
      5 C5          1.2051   -0.6804   -0.0130 C.ar      1 <0>        -0.0988
      6 C6          0.0021   -0.0041    0.0020 C.ar      1 <0>        -0.1159
      7 C7          3.6989   -0.6891   -0.0373 C.2       1 <0>        -0.1203
      8 C8          4.5663   -0.5768   -1.1468 C.2       1 <0>         0.2047
      9 N1          5.7107   -1.2153   -1.1586 N.2       1 <0>        -0.4243
     10 C9          6.0827   -1.9840   -0.1258 C.2       1 <0>         0.3452
     11 N2          7.1584   -2.7177    0.1097 N.2       1 <0>        -0.2586
     12 N3          7.0534   -3.2816    1.2609 N.2       1 <0>        -0.2263
     13 C10         5.9226   -2.9507    1.8270 C.2       1 <0>         0.1583
     14 N4          5.2676   -2.1186    0.9716 N.pl3     1 <0>        -0.4235
     15 C11         4.0722   -1.4666    1.0228 C.2       1 <0>         0.1341
     16 C12         5.4338   -3.4068    3.1776 C.3       1 <0>         0.0115
     17 C13         5.9014   -2.4393    4.2341 C.ar      1 <0>        -0.1030
     18 C14         7.1190   -2.6354    4.8592 C.ar      1 <0>        -0.0800
     19 C15         7.5497   -1.7501    5.8283 C.ar      1 <0>        -0.1418
     20 C16         6.7596   -0.6634    6.1738 C.ar      1 <0>         0.1116
     21 C17         5.5386   -0.4686    5.5448 C.ar      1 <0>        -0.1440
     22 C18         5.1147   -1.3538    4.5726 C.ar      1 <0>        -0.0974
     23 O1          7.1809    0.2087    7.1272 O.3       1 <0>        -0.4990
     24 H1         -0.9602    1.9042    0.0260 H         1 <0>         0.1271
     25 H2          1.1483    3.1717    0.0077 H         1 <0>         0.1292
     26 H3          3.3023    1.9833   -0.0191 H         1 <0>         0.1272
     27 H4          1.2187   -1.7603   -0.0189 H         1 <0>         0.1249
     28 H5         -0.9264   -0.5558    0.0082 H         1 <0>         0.1286
     29 H6          4.2849    0.0377   -1.9892 H         1 <0>         0.1911
     30 H7          3.4290   -1.5657    1.8847 H         1 <0>         0.1805
     31 H8          4.3445   -3.4445    3.1760 H         1 <0>         0.0956
     32 H9          5.8314   -4.3989    3.3918 H         1 <0>         0.1190
     33 H10         7.7337   -3.4816    4.5899 H         1 <0>         0.1350
     34 H11         8.5005   -1.9041    6.3168 H         1 <0>         0.1334
     35 H12         4.9217    0.3767    5.8120 H         1 <0>         0.1309
     36 H13         4.1662   -1.2002    4.0795 H         1 <0>         0.1213
     37 H14         7.7006    0.9476    6.7823 H         1 <0>         0.3934
@<TRIPOS>BOND
     1    1    6 ar
     2    1    2 ar
     3    1   24 1
     4    2    3 ar
     5    2   25 1
     6    3    4 ar
     7    3   26 1
     8    4    5 ar
     9    4    7 1
    10    5    6 ar
    11    5   27 1
    12    6   28 1
    13    7   15 2
    14    7    8 1
    15    8    9 2
    16    8   29 1
    17    9   10 1
    18   10   14 1
    19   10   11 2
    20   11   12 1
    21   12   13 2
    22   13   14 1
    23   13   16 1
    24   14   15 1
    25   15   30 1
    26   16   17 1
    27   16   31 1
    28   16   32 1
    29   17   22 ar
    30   17   18 ar
    31   18   19 ar
    32   18   33 1
    33   19   20 ar
    34   19   34 1
    35   20   21 ar
    36   20   23 1
    37   21   22 ar
    38   21   35 1
    39   22   36 1
    40   23   37 1
@<TRIPOS>MOLECULE
CHEMBL256767
   54    58     0     0     0
SMALL
USER_CHARGES

@<TRIPOS>ATOM
      1 C1         10.8472    0.9819   -3.5872 C.ar      1 <0>        -0.1130
      2 C2         10.7655   -0.3971   -3.5378 C.ar      1 <0>        -0.1181
      3 C3          9.7516   -1.0042   -2.8205 C.ar      1 <0>        -0.1014
      4 C4          8.8197   -0.2322   -2.1522 C.ar      1 <0>        -0.0802
      5 C5          8.9020    1.1468   -2.2009 C.ar      1 <0>        -0.1014
      6 C6          9.9150    1.7539   -2.9193 C.ar      1 <0>        -0.1181
      7 C7          7.7139   -0.8940   -1.3711 C.3       1 <0>        -0.0931
      8 C8          8.1685   -1.1233    0.0473 C.2       1 <0>         0.4823
      9 O1          9.2806   -0.7830    0.3900 O.2       1 <0>        -0.3884
     10 N1          7.3388   -1.7068    0.9348 N.am      1 <0>        -0.6409
     11 C9          7.7454   -1.9119    2.2033 C.2       1 <0>         0.5053
     12 S1          9.3157   -1.4313    2.6873 S.2       1 <0>        -0.4714
     13 N2          6.9157   -2.4953    3.0909 N.pl3     1 <0>        -0.6248
     14 C10         7.3760   -2.8147    4.3744 C.ar      1 <0>         0.1648
     15 C11         6.5607   -2.6001    5.4780 C.ar      1 <0>        -0.1174
     16 C12         7.0139   -2.9154    6.7439 C.ar      1 <0>        -0.0793
     17 C13         8.2836   -3.4467    6.9143 C.ar      1 <0>         0.0450
     18 C14         9.1006   -3.6621    5.8114 C.ar      1 <0>         0.1095
     19 C15         8.6453   -3.3515    4.5433 C.ar      1 <0>        -0.1025
     20 F1         10.3374   -4.1796    5.9774 F         1 <0>        -0.1182
     21 O2          8.7292   -3.7564    8.1614 O.3       1 <0>        -0.2373
     22 C16         9.4946   -2.8421    8.8100 C.ar      1 <0>         0.2085
     23 C17         9.8934   -1.6647    8.1824 C.ar      1 <0>        -0.2258
     24 C18        10.6739   -0.7693    8.8961 C.ar      1 <0>         0.1592
     25 N3         11.0458   -0.9920   10.1303 N.ar      1 <0>        -0.4694
     26 C19        10.6989   -2.1112   10.8071 C.ar      1 <0>         0.1444
     27 C20         9.8984   -3.0482   10.1181 C.ar      1 <0>        -0.2065
     28 S2          9.6531   -4.3408   11.3083 S.3       1 <0>         0.1601
     29 C21        10.5825   -3.6291   12.6554 C.2       1 <0>        -0.0746
     30 C22        11.0349   -2.4628   12.1277 C.2       1 <0>        -0.0838
     31 C23        10.8134   -4.1794   14.0074 C.ar      1 <0>         0.3939
     32 N4         11.5371   -3.4834   14.8759 N.ar      1 <0>        -0.5001
     33 C24        11.7620   -3.9476   16.0926 C.ar      1 <0>         0.1570
     34 C25        11.2318   -5.1766   16.4572 C.ar      1 <0>        -0.2237
     35 C26        10.4803   -5.8781   15.5257 C.ar      1 <0>         0.1571
     36 N5         10.2878   -5.3560   14.3271 N.ar      1 <0>        -0.5058
     37 H1         11.6419    1.4562   -4.1438 H         1 <0>         0.1232
     38 H2         11.4935   -1.0002   -4.0598 H         1 <0>         0.1238
     39 H3          9.6874   -2.0816   -2.7825 H         1 <0>         0.1202
     40 H4          8.1737    1.7500   -1.6791 H         1 <0>         0.1202
     41 H5          9.9790    2.8313   -2.9576 H         1 <0>         0.1239
     42 H6          6.8339   -0.2509   -1.3711 H         1 <0>         0.1093
     43 H7          7.4653   -1.8500   -1.8320 H         1 <0>         0.1092
     44 H8          6.4491   -1.9791    0.6607 H         1 <0>         0.4126
     45 H9          5.9999   -2.6939    2.8407 H         1 <0>         0.4132
     46 H10         5.5719   -2.1861    5.3462 H         1 <0>         0.1453
     47 H11         6.3794   -2.7478    7.6016 H         1 <0>         0.1521
     48 H12         9.2781   -3.5228    3.6850 H         1 <0>         0.1636
     49 H13         9.6018   -1.4547    7.1639 H         1 <0>         0.1518
     50 H14        10.9869    0.1459    8.4156 H         1 <0>         0.1697
     51 H15        11.6416   -1.7989   12.7256 H         1 <0>         0.1606
     52 H16        12.3518   -3.3770   16.7948 H         1 <0>         0.1774
     53 H17        11.4009   -5.5789   17.4451 H         1 <0>         0.1551
     54 H18        10.0540   -6.8376   15.7786 H         1 <0>         0.1768
@<TRIPOS>BOND
     1    1    6 ar
     2    1    2 ar
     3    1   37 1
     4    2    3 ar
     5    2   38 1
     6    3    4 ar
     7    3   39 1
     8    4    5 ar
     9    4    7 1
    10    5    6 ar
    11    5   40 1
    12    6   41 1
    13    7    8 1
    14    7   42 1
    15    7   43 1
    16    8    9 2
    17    8   10 am
    18   10   11 1
    19   10   44 1
    20   11   12 2
    21   11   13 1
    22   13   14 1
    23   13   45 1
    24   14   19 ar
    25   14   15 ar
    26   15   16 ar
    27   15   46 1
    28   16   17 ar
    29   16   47 1
    30   17   18 ar
    31   17   21 1
    32   18   19 ar
    33   18   20 1
    34   19   48 1
    35   21   22 1
    36   22   27 ar
    37   22   23 ar
    38   23   24 ar
    39   23   49 1
    40   24   25 ar
    41   24   50 1
    42   25   26 ar
    43   26   30 1
    44   26   27 ar
    45   27   28 1
    46   28   29 1
    47   29   30 2
    48   29   31 1
    49   30   51 1
    50   31   36 ar
    51   31   32 ar
    52   32   33 ar
    53   33   34 ar
    54   33   52 1
    55   34   35 ar
    56   34   53 1
    57   35   36 ar
    58   35   54 1
@<TRIPOS>MOLECULE
CHEMBL402042
   55    59     0     0     0
SMALL
USER_CHARGES

@<TRIPOS>ATOM
      1 C1         10.8468    0.9823   -3.5872 C.ar      1 <0>        -0.1129
      2 C2         10.7651   -0.3968   -3.5378 C.ar      1 <0>        -0.1181
      3 C3          9.7513   -1.0039   -2.8205 C.ar      1 <0>        -0.1014
      4 C4          8.8194   -0.2320   -2.1522 C.ar      1 <0>        -0.0803
      5 C5          8.9016    1.1471   -2.2008 C.ar      1 <0>        -0.1014
      6 C6          9.9146    1.7542   -2.9193 C.ar      1 <0>        -0.1181
      7 C7          7.7136   -0.8938   -1.3711 C.3       1 <0>        -0.0930
      8 C8          8.1683   -1.1232    0.0473 C.2       1 <0>         0.4823
      9 O1          9.2804   -0.7828    0.3900 O.2       1 <0>        -0.3883
     10 N1          7.3387   -1.7067    0.9349 N.am      1 <0>        -0.6408
     11 C9          7.7453   -1.9118    2.2034 C.2       1 <0>         0.5054
     12 S1          9.3156   -1.4312    2.6872 S.2       1 <0>        -0.4714
     13 N2          6.9157   -2.4953    3.0909 N.pl3     1 <0>        -0.6250
     14 C10         7.3760   -2.8147    4.3744 C.ar      1 <0>         0.1653
     15 C11         6.5608   -2.6001    5.4780 C.ar      1 <0>        -0.1174
     16 C12         7.0144   -2.9145    6.7440 C.ar      1 <0>        -0.0794
     17 C13         8.2843   -3.4453    6.9144 C.ar      1 <0>         0.0445
     18 C14         9.1012   -3.6607    5.8115 C.ar      1 <0>         0.1095
     19 C15         8.6453   -3.3514    4.5433 C.ar      1 <0>        -0.1023
     20 F1         10.3384   -4.1774    5.9775 F         1 <0>        -0.1184
     21 O2          8.7301   -3.7546    8.1615 O.3       1 <0>        -0.2380
     22 C16         9.4954   -2.8399    8.8098 C.ar      1 <0>         0.2104
     23 C17         9.8940   -1.6618    8.1814 C.ar      1 <0>        -0.2315
     24 C18        10.6742   -0.7667    8.8941 C.ar      1 <0>         0.1613
     25 N3         11.0468   -0.9895   10.1287 N.ar      1 <0>        -0.4755
     26 C19        10.7002   -2.1087   10.8054 C.ar      1 <0>         0.1580
     27 C20         9.8990   -3.0455   10.1168 C.ar      1 <0>        -0.2046
     28 S2          9.6537   -4.3378   11.3073 S.3       1 <0>         0.1040
     29 C21        10.5834   -3.6261   12.6541 C.2       1 <0>        -0.0599
     30 C22        11.0367   -2.4605   12.1260 C.2       1 <0>        -0.1332
     31 C23        10.8144   -4.1767   14.0071 C.ar      1 <0>        -0.0690
     32 C24        10.2780   -5.4170   14.3718 C.ar      1 <0>        -0.0560
     33 C25        10.5238   -5.8877   15.6495 C.ar      1 <0>        -0.1661
     34 C26        11.2845   -5.1249   16.5175 C.ar      1 <0>         0.1100
     35 N4         11.7770   -3.9589   16.1463 N.ar      1 <0>        -0.4779
     36 C27        11.5755   -3.4712   14.9395 C.ar      1 <0>         0.1308
     37 H1         11.6414    1.4566   -4.1439 H         1 <0>         0.1233
     38 H2         11.4932   -0.9999   -4.0600 H         1 <0>         0.1239
     39 H3          9.6871   -2.0813   -2.7826 H         1 <0>         0.1202
     40 H4          8.1734    1.7502   -1.6790 H         1 <0>         0.1202
     41 H5          9.9786    2.8316   -2.9576 H         1 <0>         0.1239
     42 H6          6.8336   -0.2507   -1.3710 H         1 <0>         0.1093
     43 H7          7.4651   -1.8498   -1.8320 H         1 <0>         0.1093
     44 H8          6.4490   -1.9790    0.6607 H         1 <0>         0.4127
     45 H9          5.9998   -2.6939    2.8407 H         1 <0>         0.4133
     46 H10         5.5717   -2.1868    5.3462 H         1 <0>         0.1455
     47 H11         6.3801   -2.7466    7.6018 H         1 <0>         0.1518
     48 H12         9.2781   -3.5227    3.6850 H         1 <0>         0.1638
     49 H13         9.6018   -1.4520    7.1631 H         1 <0>         0.1513
     50 H14        10.9869    0.1485    8.4134 H         1 <0>         0.1692
     51 H15        11.6439   -1.7969   12.7238 H         1 <0>         0.1526
     52 H16         9.6872   -5.9917   13.6739 H         1 <0>         0.1384
     53 H17        10.1257   -6.8405   15.9659 H         1 <0>         0.1440
     54 H18        11.4779   -5.4899   17.5153 H         1 <0>         0.1627
     55 H19        11.9995   -2.5149   14.6708 H         1 <0>         0.1630
@<TRIPOS>BOND
     1    1    6 ar
     2    1    2 ar
     3    1   37 1
     4    2    3 ar
     5    2   38 1
     6    3    4 ar
     7    3   39 1
     8    4    5 ar
     9    4    7 1
    10    5    6 ar
    11    5   40 1
    12    6   41 1
    13    7    8 1
    14    7   42 1
    15    7   43 1
    16    8    9 2
    17    8   10 am
    18   10   11 1
    19   10   44 1
    20   11   12 2
    21   11   13 1
    22   13   14 1
    23   13   45 1
    24   14   19 ar
    25   14   15 ar
    26   15   16 ar
    27   15   46 1
    28   16   17 ar
    29   16   47 1
    30   17   18 ar
    31   17   21 1
    32   18   19 ar
    33   18   20 1
    34   19   48 1
    35   21   22 1
    36   22   27 ar
    37   22   23 ar
    38   23   24 ar
    39   23   49 1
    40   24   25 ar
    41   24   50 1
    42   25   26 ar
    43   26   30 1
    44   26   27 ar
    45   27   28 1
    46   28   29 1
    47   29   30 2
    48   29   31 1
    49   30   51 1
    50   31   36 ar
    51   31   32 ar
    52   32   33 ar
    53   32   52 1
    54   33   34 ar
    55   33   53 1
    56   34   35 ar
    57   34   54 1
    58   35   36 ar
    59   36   55 1
@<TRIPOS>MOLECULE
CHEMBL518209
   60    65     0     0     0
SMALL
USER_CHARGES

@<TRIPOS>ATOM
      1 C1          1.5032    0.4405    0.9398 C.3       1 <0>         0.0692
      2 N1          0.4428   -0.1457    0.1164 N.pl3     1 <0>        -0.4590
      3 C2          0.6036   -1.0953   -0.8525 C.2       1 <0>        -0.0157
      4 C3         -0.6338   -1.3494   -1.3594 C.2       1 <0>         0.0625
      5 N2         -1.5139   -0.5641   -0.7028 N.2       1 <0>        -0.4698
      6 C4         -0.8745    0.1498    0.1801 C.2       1 <0>         0.1965
      7 C5         -0.9558   -2.3112   -2.4350 C.2       1 <0>        -0.0123
      8 C6         -2.1662   -2.5983   -2.9796 C.2       1 <0>        -0.1343
      9 C7         -2.2661   -3.5553   -4.0068 C.ar      1 <0>         0.1647
     10 C8         -1.0476   -4.1549   -4.3937 C.ar      1 <0>        -0.2092
     11 S1          0.1515   -3.3758   -3.3436 S.3       1 <0>         0.1027
     12 C9         -0.9892   -5.1116   -5.3899 C.ar      1 <0>         0.2118
     13 C10        -2.1805   -5.4775   -6.0146 C.ar      1 <0>        -0.2394
     14 C11        -3.3532   -4.8658   -5.6057 C.ar      1 <0>         0.1591
     15 N3         -3.3795   -3.9622   -4.6588 N.ar      1 <0>        -0.4778
     16 O1          0.1917   -5.6769   -5.7489 O.3       1 <0>        -0.2367
     17 C12         0.1657   -6.6846   -6.6618 C.ar      1 <0>         0.0197
     18 C13         0.0677   -8.0016   -6.2382 C.ar      1 <0>        -0.0644
     19 C14         0.0413   -9.0256   -7.1645 C.ar      1 <0>        -0.1429
     20 C15         0.1133   -8.7375   -8.5210 C.ar      1 <0>         0.1898
     21 C16         0.2115   -7.4195   -8.9463 C.ar      1 <0>        -0.1594
     22 C17         0.2317   -6.3943   -8.0189 C.ar      1 <0>         0.1255
     23 F1          0.3217   -5.1111   -8.4318 F         1 <0>        -0.1203
     24 N4          0.0874   -9.7765   -9.4602 N.am      1 <0>        -0.6585
     25 C18        -0.3681   -9.5463  -10.7076 C.2       1 <0>         0.5355
     26 O2         -0.8577   -8.4720  -10.9857 O.2       1 <0>        -0.4992
     27 C19        -0.2691  -10.6235  -11.7567 C.3       1 <0>        -0.1469
     28 C20        -0.9383  -10.1613  -13.0718 C.3       1 <0>        -0.1155
     29 C21        -1.5770  -11.4734  -13.5784 C.3       1 <0>         0.0914
     30 N5         -1.7929  -12.2921  -12.3796 N.am      1 <0>        -0.5499
     31 C22        -1.0663  -11.8407  -11.3427 C.2       1 <0>         0.5272
     32 O3         -1.0517  -12.3373  -10.2362 O.2       1 <0>        -0.4999
     33 C23        -2.6455  -13.4002  -12.3233 C.ar      1 <0>         0.1577
     34 C24        -2.8761  -14.0399  -11.1125 C.ar      1 <0>        -0.1541
     35 C25        -3.7181  -15.1334  -11.0602 C.ar      1 <0>        -0.0914
     36 C26        -4.3311  -15.5916  -12.2120 C.ar      1 <0>        -0.1403
     37 C27        -4.1032  -14.9570  -13.4193 C.ar      1 <0>        -0.0924
     38 C28        -3.2674  -13.8590  -13.4771 C.ar      1 <0>        -0.1537
     39 H1          1.6333   -0.1557    1.8430 H         1 <0>         0.0826
     40 H2          2.4358    0.4538    0.3757 H         1 <0>         0.0897
     41 H3          1.2295    1.4595    1.2134 H         1 <0>         0.0935
     42 H4          1.5322   -1.5549   -1.1572 H         1 <0>         0.1824
     43 H5         -1.3245    0.8648    0.8529 H         1 <0>         0.2140
     44 H6         -3.0519   -2.0926   -2.6244 H         1 <0>         0.1545
     45 H7         -2.1883   -6.2200   -6.7988 H         1 <0>         0.1470
     46 H8         -4.2799   -5.1443   -6.0852 H         1 <0>         0.1663
     47 H9          0.0123   -8.2265   -5.1833 H         1 <0>         0.1501
     48 H10        -0.0351  -10.0508   -6.8338 H         1 <0>         0.1468
     49 H11         0.2679   -7.1949  -10.0012 H         1 <0>         0.1648
     50 H12         0.3973  -10.6618   -9.2127 H         1 <0>         0.4255
     51 H13         0.7732  -10.8911  -11.9303 H         1 <0>         0.1496
     52 H14        -1.7001   -9.4063  -12.8775 H         1 <0>         0.1068
     53 H15        -0.1954   -9.7909  -13.7783 H         1 <0>         0.1082
     54 H16        -2.5277  -11.2653  -14.0692 H         1 <0>         0.0960
     55 H17        -0.9003  -11.9817  -14.2654 H         1 <0>         0.0895
     56 H18        -2.3971  -13.6830  -10.2127 H         1 <0>         0.1540
     57 H19        -3.8978  -15.6314  -10.1189 H         1 <0>         0.1281
     58 H20        -4.9888  -16.4470  -12.1686 H         1 <0>         0.1251
     59 H21        -4.5829  -15.3177  -14.3172 H         1 <0>         0.1285
     60 H22        -3.0937  -13.3608  -14.4195 H         1 <0>         0.1267
@<TRIPOS>BOND
     1    1    2 1
     2    1   39 1
     3    1   40 1
     4    1   41 1
     5    2    6 1
     6    2    3 1
     7    3    4 2
     8    3   42 1
     9    4    5 1
    10    4    7 1
    11    5    6 2
    12    6   43 1
    13    7   11 1
    14    7    8 2
    15    8    9 1
    16    8   44 1
    17    9   15 ar
    18    9   10 ar
    19   10   11 1
    20   10   12 ar
    21   12   13 ar
    22   12   16 1
    23   13   14 ar
    24   13   45 1
    25   14   15 ar
    26   14   46 1
    27   16   17 1
    28   17   22 ar
    29   17   18 ar
    30   18   19 ar
    31   18   47 1
    32   19   20 ar
    33   19   48 1
    34   20   21 ar
    35   20   24 1
    36   21   22 ar
    37   21   49 1
    38   22   23 1
    39   24   25 am
    40   24   50 1
    41   25   26 2
    42   25   27 1
    43   27   31 1
    44   27   28 1
    45   27   51 1
    46   28   29 1
    47   28   52 1
    48   28   53 1
    49   29   30 1
    50   29   54 1
    51   29   55 1
    52   30   31 am
    53   30   33 1
    54   31   32 2
    55   33   38 ar
    56   33   34 ar
    57   34   35 ar
    58   34   56 1
    59   35   36 ar
    60   35   57 1
    61   36   37 ar
    62   36   58 1
    63   37   38 ar
    64   37   59 1
    65   38   60 1
@<TRIPOS>MOLECULE
CHEMBL518209__1
   61    66     0     0     0
SMALL
USER_CHARGES

@<TRIPOS>ATOM
      1 C1          1.5032    0.4405    0.9398 C.3       1 <0>         0.0535
      2 N1          0.4428   -0.1457    0.1164 N.pl3     1 <0>        -0.4045
      3 C2          0.6036   -1.0953   -0.8525 C.2       1 <0>         0.0474
      4 C3         -0.6338   -1.3494   -1.3594 C.2       1 <0>         0.1247
      5 N2         -1.5139   -0.5641   -0.7028 N.pl3     1 <0>        -0.4726
      6 C4         -0.8745    0.1498    0.1801 C.cat     1 <0>         0.3041
      7 C5         -0.9558   -2.3112   -2.4350 C.2       1 <0>        -0.1215
      8 C6         -2.1662   -2.5983   -2.9796 C.2       1 <0>        -0.0819
      9 C7         -2.2661   -3.5553   -4.0068 C.ar      1 <0>         0.1378
     10 C8         -1.0476   -4.1549   -4.3937 C.ar      1 <0>        -0.1938
     11 S1          0.1515   -3.3758   -3.3436 S.3       1 <0>         0.1708
     12 C9         -0.9892   -5.1116   -5.3899 C.ar      1 <0>         0.2101
     13 C10        -2.1805   -5.4775   -6.0146 C.ar      1 <0>        -0.2130
     14 C11        -3.3532   -4.8658   -5.6057 C.ar      1 <0>         0.1671
     15 N3         -3.3795   -3.9622   -4.6588 N.ar      1 <0>        -0.4689
     16 O1          0.1917   -5.6769   -5.7489 O.3       1 <0>        -0.2322
     17 C12         0.1657   -6.6846   -6.6618 C.ar      1 <0>         0.0049
     18 C13         0.0677   -8.0016   -6.2382 C.ar      1 <0>        -0.0610
     19 C14         0.0413   -9.0256   -7.1645 C.ar      1 <0>        -0.1430
     20 C15         0.1133   -8.7375   -8.5210 C.ar      1 <0>         0.2002
     21 C16         0.2115   -7.4195   -8.9463 C.ar      1 <0>        -0.1598
     22 C17         0.2317   -6.3943   -8.0189 C.ar      1 <0>         0.1288
     23 F1          0.3217   -5.1111   -8.4318 F         1 <0>        -0.1207
     24 N4          0.0874   -9.7765   -9.4602 N.am      1 <0>        -0.6597
     25 C18        -0.3681   -9.5463  -10.7076 C.2       1 <0>         0.5380
     26 O2         -0.8577   -8.4720  -10.9857 O.2       1 <0>        -0.4987
     27 C19        -0.2691  -10.6235  -11.7567 C.3       1 <0>        -0.1475
     28 C20        -0.9383  -10.1613  -13.0718 C.3       1 <0>        -0.1153
     29 C21        -1.5770  -11.4734  -13.5784 C.3       1 <0>         0.0905
     30 N5         -1.7929  -12.2921  -12.3796 N.am      1 <0>        -0.5483
     31 C22        -1.0663  -11.8407  -11.3427 C.2       1 <0>         0.5269
     32 O3         -1.0517  -12.3373  -10.2362 O.2       1 <0>        -0.5019
     33 C23        -2.6455  -13.4002  -12.3233 C.ar      1 <0>         0.1553
     34 C24        -2.8761  -14.0399  -11.1125 C.ar      1 <0>        -0.1540
     35 C25        -3.7181  -15.1334  -11.0602 C.ar      1 <0>        -0.0918
     36 C26        -4.3311  -15.5916  -12.2120 C.ar      1 <0>        -0.1385
     37 C27        -4.1032  -14.9570  -13.4193 C.ar      1 <0>        -0.0917
     38 C28        -3.2674  -13.8590  -13.4771 C.ar      1 <0>        -0.1525
     39 H1          1.6333   -0.1557    1.8430 H         1 <0>         0.1145
     40 H2          2.4358    0.4538    0.3757 H         1 <0>         0.1204
     41 H3          1.2295    1.4595    1.2134 H         1 <0>         0.1193
     42 H4          1.5322   -1.5549   -1.1572 H         1 <0>         0.2279
     43 H5         -1.3245    0.8648    0.8529 H         1 <0>         0.2683
     44 H6         -3.0519   -2.0926   -2.6244 H         1 <0>         0.1497
     45 H7         -2.1883   -6.2200   -6.7988 H         1 <0>         0.1570
     46 H8         -4.2799   -5.1443   -6.0852 H         1 <0>         0.1762
     47 H9          0.0123   -8.2265   -5.1833 H         1 <0>         0.1504
     48 H10        -0.0351  -10.0508   -6.8338 H         1 <0>         0.1499
     49 H11         0.2679   -7.1949  -10.0012 H         1 <0>         0.1676
     50 H12         0.3973  -10.6618   -9.2127 H         1 <0>         0.4276
     51 H13         0.7732  -10.8911  -11.9303 H         1 <0>         0.1508
     52 H14        -1.7001   -9.4063  -12.8775 H         1 <0>         0.1063
     53 H15        -0.1954   -9.7909  -13.7783 H         1 <0>         0.1090
     54 H16        -2.5277  -11.2653  -14.0692 H         1 <0>         0.0969
     55 H17        -0.9003  -11.9817  -14.2654 H         1 <0>         0.0907
     56 H18        -2.3971  -13.6830  -10.2127 H         1 <0>         0.1533
     57 H19        -3.8978  -15.6314  -10.1189 H         1 <0>         0.1283
     58 H20        -4.9888  -16.4470  -12.1686 H         1 <0>         0.1261
     59 H21        -4.5829  -15.3177  -14.3172 H         1 <0>         0.1297
     60 H22        -3.0937  -13.3608  -14.4195 H         1 <0>         0.1271
     61 H23        -2.4706   -0.5378   -0.8609 H         1 <0>         0.4659
@<TRIPOS>BOND
     1    1    2 1
     2    1   39 1
     3    1   40 1
     4    1   41 1
     5    2    6 1
     6    2    3 1
     7    3    4 2
     8    3   42 1
     9    4    5 1
    10    4    7 1
    11    5    6 2
    12    5   61 1
    13    6   43 1
    14    7   11 1
    15    7    8 2
    16    8    9 1
    17    8   44 1
    18    9   15 ar
    19    9   10 ar
    20   10   11 1
    21   10   12 ar
    22   12   13 ar
    23   12   16 1
    24   13   14 ar
    25   13   45 1
    26   14   15 ar
    27   14   46 1
    28   16   17 1
    29   17   22 ar
    30   17   18 ar
    31   18   19 ar
    32   18   47 1
    33   19   20 ar
    34   19   48 1
    35   20   21 ar
    36   20   24 1
    37   21   22 ar
    38   21   49 1
    39   22   23 1
    40   24   25 am
    41   24   50 1
    42   25   26 2
    43   25   27 1
    44   27   31 1
    45   27   28 1
    46   27   51 1
    47   28   29 1
    48   28   52 1
    49   28   53 1
    50   29   30 1
    51   29   54 1
    52   29   55 1
    53   30   31 am
    54   30   33 1
    55   31   32 2
    56   33   38 ar
    57   33   34 ar
    58   34   35 ar
    59   34   56 1
    60   35   36 ar
    61   35   57 1
    62   36   37 ar
    63   36   58 1
    64   37   38 ar
    65   37   59 1
    66   38   60 1
@<TRIPOS>MOLECULE
CHEMBL518209__2
   60    65     0     0     0
SMALL
USER_CHARGES

@<TRIPOS>ATOM
      1 C1          1.1777    0.2922    1.1661 C.3       1 <0>         0.0692
      2 N1          0.1325   -0.3066    0.3323 N.pl3     1 <0>        -0.4590
      3 C2          0.3179   -1.2319   -0.6555 C.2       1 <0>        -0.0157
      4 C3         -0.9129   -1.5100   -1.1659 C.2       1 <0>         0.0625
      5 N2         -1.8132   -0.7627   -0.4928 N.2       1 <0>        -0.4698
      6 C4         -1.1923   -0.0491    0.4035 C.2       1 <0>         0.1964
      7 C5         -1.2099   -2.4587   -2.2602 C.2       1 <0>        -0.0122
      8 C6         -2.4128   -2.7683   -2.8090 C.2       1 <0>        -0.1343
      9 C7         -2.4880   -3.7071   -3.8550 C.ar      1 <0>         0.1648
     10 C8         -1.2541   -4.2648   -4.2553 C.ar      1 <0>        -0.2091
     11 S1         -0.0752   -3.4739   -3.1912 S.3       1 <0>         0.1030
     12 C9         -1.1709   -5.1995   -5.2704 C.ar      1 <0>         0.2121
     13 C10        -2.3526   -5.5858   -5.9009 C.ar      1 <0>        -0.2394
     14 C11        -3.5411   -5.0151   -5.4785 C.ar      1 <0>         0.1593
     15 N3         -3.5909   -4.1317   -4.5137 N.ar      1 <0>        -0.4775
     16 O1          0.0246   -5.7246   -5.6420 O.3       1 <0>        -0.2371
     17 C12         0.0249   -6.7147   -6.5743 C.ar      1 <0>         0.0257
     18 C13        -0.0013   -8.0427   -6.1753 C.ar      1 <0>        -0.0686
     19 C14        -0.0010   -9.0489   -7.1212 C.ar      1 <0>        -0.1182
     20 C15         0.0261   -8.7319   -8.4729 C.ar      1 <0>         0.1851
     21 C16         0.0524   -7.4029   -8.8736 C.ar      1 <0>        -0.1673
     22 C17         0.0459   -6.3957   -7.9264 C.ar      1 <0>         0.1211
     23 F1          0.0659   -5.1021   -8.3152 F         1 <0>        -0.1206
     24 N4          0.0273   -9.7529   -9.4320 N.am      1 <0>        -0.6603
     25 C18        -0.6667  -10.8867   -9.2102 C.2       1 <0>         0.5376
     26 O2         -1.2326  -11.0539   -8.1504 O.2       1 <0>        -0.5021
     27 C19        -0.7396  -11.9469  -10.2787 C.3       1 <0>        -0.1465
     28 C20        -1.6632  -13.1036   -9.8314 C.3       1 <0>        -0.1149
     29 C21        -2.3480  -13.4918  -11.1605 C.3       1 <0>         0.0912
     30 N5         -2.3043  -12.2828  -11.9913 N.am      1 <0>        -0.5506
     31 C22        -1.4054  -11.4003  -11.5223 C.2       1 <0>         0.5268
     32 O3         -1.1635  -10.3224  -12.0231 O.2       1 <0>        -0.4978
     33 C23        -3.0966  -12.0754  -13.1259 C.ar      1 <0>         0.1582
     34 C24        -2.8934  -10.9552  -13.9212 C.ar      1 <0>        -0.1543
     35 C25        -3.6771  -10.7533  -15.0403 C.ar      1 <0>        -0.0913
     36 C26        -4.6636  -11.6649  -15.3690 C.ar      1 <0>        -0.1406
     37 C27        -4.8688  -12.7810  -14.5788 C.ar      1 <0>        -0.0923
     38 C28        -4.0840  -12.9921  -13.4621 C.ar      1 <0>        -0.1543
     39 H1          1.3259   -0.3180    2.0570 H         1 <0>         0.0826
     40 H2          2.1086    0.3426    0.6013 H         1 <0>         0.0896
     41 H3          0.8763    1.2976    1.4602 H         1 <0>         0.0935
     42 H4          1.2584   -1.6594   -0.9705 H         1 <0>         0.1825
     43 H5         -1.6608    0.6396    1.0910 H         1 <0>         0.2140
     44 H6         -3.3116   -2.2946   -2.4427 H         1 <0>         0.1545
     45 H7         -2.3412   -6.3124   -6.6999 H         1 <0>         0.1466
     46 H8         -4.4606   -5.3096   -5.9624 H         1 <0>         0.1664
     47 H9         -0.0217   -8.2901   -5.1242 H         1 <0>         0.1494
     48 H10        -0.0215  -10.0828   -6.8096 H         1 <0>         0.1566
     49 H11         0.0738   -7.1558   -9.9248 H         1 <0>         0.1520
     50 H12         0.5276   -9.6438  -10.2558 H         1 <0>         0.4228
     51 H13         0.2573  -12.3206  -10.5126 H         1 <0>         0.1485
     52 H14        -1.0818  -13.9358   -9.4345 H         1 <0>         0.1079
     53 H15        -2.3954  -12.7581   -9.1016 H         1 <0>         0.1066
     54 H16        -1.8015  -14.3016  -11.6439 H         1 <0>         0.0895
     55 H17        -3.3813  -13.7882  -10.9799 H         1 <0>         0.0954
     56 H18        -2.1235  -10.2425  -13.6646 H         1 <0>         0.1541
     57 H19        -3.5196   -9.8824  -15.6592 H         1 <0>         0.1280
     58 H20        -5.2754  -11.5046  -16.2444 H         1 <0>         0.1250
     59 H21        -5.6405  -13.4908  -14.8378 H         1 <0>         0.1285
     60 H22        -4.2415  -13.8665  -12.8481 H         1 <0>         0.1267
@<TRIPOS>BOND
     1    1    2 1
     2    1   39 1
     3    1   40 1
     4    1   41 1
     5    2    6 1
     6    2    3 1
     7    3    4 2
     8    3   42 1
     9    4    5 1
    10    4    7 1
    11    5    6 2
    12    6   43 1
    13    7   11 1
    14    7    8 2
    15    8    9 1
    16    8   44 1
    17    9   15 ar
    18    9   10 ar
    19   10   11 1
    20   10   12 ar
    21   12   13 ar
    22   12   16 1
    23   13   14 ar
    24   13   45 1
    25   14   15 ar
    26   14   46 1
    27   16   17 1
    28   17   22 ar
    29   17   18 ar
    30   18   19 ar
    31   18   47 1
    32   19   20 ar
    33   19   48 1
    34   20   21 ar
    35   20   24 1
    36   21   22 ar
    37   21   49 1
    38   22   23 1
    39   24   25 am
    40   24   50 1
    41   25   26 2
    42   25   27 1
    43   27   31 1
    44   27   28 1
    45   27   51 1
    46   28   29 1
    47   28   52 1
    48   28   53 1
    49   29   30 1
    50   29   54 1
    51   29   55 1
    52   30   31 am
    53   30   33 1
    54   31   32 2
    55   33   38 ar
    56   33   34 ar
    57   34   35 ar
    58   34   56 1
    59   35   36 ar
    60   35   57 1
    61   36   37 ar
    62   36   58 1
    63   37   38 ar
    64   37   59 1
    65   38   60 1
@<TRIPOS>MOLECULE
CHEMBL518209__3
   61    66     0     0     0
SMALL
USER_CHARGES

@<TRIPOS>ATOM
      1 C1          1.1777    0.2922    1.1661 C.3       1 <0>         0.0535
      2 N1          0.1325   -0.3066    0.3323 N.pl3     1 <0>        -0.4044
      3 C2          0.3179   -1.2319   -0.6555 C.2       1 <0>         0.0474
      4 C3         -0.9129   -1.5100   -1.1659 C.2       1 <0>         0.1247
      5 N2         -1.8132   -0.7627   -0.4928 N.pl3     1 <0>        -0.4726
      6 C4         -1.1923   -0.0491    0.4035 C.cat     1 <0>         0.3041
      7 C5         -1.2099   -2.4587   -2.2602 C.2       1 <0>        -0.1213
      8 C6         -2.4128   -2.7683   -2.8090 C.2       1 <0>        -0.0820
      9 C7         -2.4880   -3.7071   -3.8550 C.ar      1 <0>         0.1379
     10 C8         -1.2541   -4.2648   -4.2553 C.ar      1 <0>        -0.1937
     11 S1         -0.0752   -3.4739   -3.1912 S.3       1 <0>         0.1711
     12 C9         -1.1709   -5.1995   -5.2704 C.ar      1 <0>         0.2104
     13 C10        -2.3526   -5.5858   -5.9009 C.ar      1 <0>        -0.2130
     14 C11        -3.5411   -5.0151   -5.4785 C.ar      1 <0>         0.1673
     15 N3         -3.5909   -4.1317   -4.5137 N.ar      1 <0>        -0.4686
     16 O1          0.0246   -5.7246   -5.6420 O.3       1 <0>        -0.2327
     17 C12         0.0249   -6.7147   -6.5743 C.ar      1 <0>         0.0112
     18 C13        -0.0013   -8.0427   -6.1753 C.ar      1 <0>        -0.0653
     19 C14        -0.0010   -9.0489   -7.1212 C.ar      1 <0>        -0.1185
     20 C15         0.0261   -8.7319   -8.4729 C.ar      1 <0>         0.1956
     21 C16         0.0524   -7.4029   -8.8736 C.ar      1 <0>        -0.1673
     22 C17         0.0459   -6.3957   -7.9264 C.ar      1 <0>         0.1242
     23 F1          0.0659   -5.1021   -8.3152 F         1 <0>        -0.1210
     24 N4          0.0273   -9.7529   -9.4320 N.am      1 <0>        -0.6617
     25 C18        -0.6667  -10.8867   -9.2102 C.2       1 <0>         0.5402
     26 O2         -1.2326  -11.0539   -8.1504 O.2       1 <0>        -0.5021
     27 C19        -0.7396  -11.9469  -10.2787 C.3       1 <0>        -0.1472
     28 C20        -1.6632  -13.1036   -9.8314 C.3       1 <0>        -0.1146
     29 C21        -2.3480  -13.4918  -11.1605 C.3       1 <0>         0.0903
     30 N5         -2.3043  -12.2828  -11.9913 N.am      1 <0>        -0.5491
     31 C22        -1.4054  -11.4003  -11.5223 C.2       1 <0>         0.5265
     32 O3         -1.1635  -10.3224  -12.0231 O.2       1 <0>        -0.4999
     33 C23        -3.0966  -12.0754  -13.1259 C.ar      1 <0>         0.1558
     34 C24        -2.8934  -10.9552  -13.9212 C.ar      1 <0>        -0.1542
     35 C25        -3.6771  -10.7533  -15.0403 C.ar      1 <0>        -0.0917
     36 C26        -4.6636  -11.6649  -15.3690 C.ar      1 <0>        -0.1388
     37 C27        -4.8688  -12.7810  -14.5788 C.ar      1 <0>        -0.0917
     38 C28        -4.0840  -12.9921  -13.4621 C.ar      1 <0>        -0.1532
     39 H1          1.3259   -0.3180    2.0570 H         1 <0>         0.1146
     40 H2          2.1086    0.3426    0.6013 H         1 <0>         0.1204
     41 H3          0.8763    1.2976    1.4602 H         1 <0>         0.1193
     42 H4          1.2584   -1.6594   -0.9705 H         1 <0>         0.2279
     43 H5         -1.6608    0.6396    1.0910 H         1 <0>         0.2684
     44 H6         -3.3116   -2.2946   -2.4427 H         1 <0>         0.1498
     45 H7         -2.3412   -6.3124   -6.6999 H         1 <0>         0.1566
     46 H8         -4.4606   -5.3096   -5.9624 H         1 <0>         0.1763
     47 H9         -0.0217   -8.2901   -5.1242 H         1 <0>         0.1497
     48 H10        -0.0215  -10.0828   -6.8096 H         1 <0>         0.1595
     49 H11         0.0738   -7.1558   -9.9248 H         1 <0>         0.1551
     50 H12         0.5276   -9.6438  -10.2558 H         1 <0>         0.4251
     51 H13         0.2573  -12.3206  -10.5126 H         1 <0>         0.1497
     52 H14        -1.0818  -13.9358   -9.4345 H         1 <0>         0.1087
     53 H15        -2.3954  -12.7581   -9.1016 H         1 <0>         0.1060
     54 H16        -1.8015  -14.3016  -11.6439 H         1 <0>         0.0908
     55 H17        -3.3813  -13.7882  -10.9799 H         1 <0>         0.0963
     56 H18        -2.1235  -10.2425  -13.6646 H         1 <0>         0.1535
     57 H19        -3.5196   -9.8824  -15.6592 H         1 <0>         0.1283
     58 H20        -5.2754  -11.5046  -16.2444 H         1 <0>         0.1260
     59 H21        -5.6405  -13.4908  -14.8378 H         1 <0>         0.1295
     60 H22        -4.2415  -13.8665  -12.8481 H         1 <0>         0.1271
     61 H23        -2.7705   -0.7598   -0.6492 H         1 <0>         0.4659
@<TRIPOS>BOND
     1    1    2 1
     2    1   39 1
     3    1   40 1
     4    1   41 1
     5    2    6 1
     6    2    3 1
     7    3    4 2
     8    3   42 1
     9    4    5 1
    10    4    7 1
    11    5    6 2
    12    5   61 1
    13    6   43 1
    14    7   11 1
    15    7    8 2
    16    8    9 1
    17    8   44 1
    18    9   15 ar
    19    9   10 ar
    20   10   11 1
    21   10   12 ar
    22   12   13 ar
    23   12   16 1
    24   13   14 ar
    25   13   45 1
    26   14   15 ar
    27   14   46 1
    28   16   17 1
    29   17   22 ar
    30   17   18 ar
    31   18   19 ar
    32   18   47 1
    33   19   20 ar
    34   19   48 1
    35   20   21 ar
    36   20   24 1
    37   21   22 ar
    38   21   49 1
    39   22   23 1
    40   24   25 am
    41   24   50 1
    42   25   26 2
    43   25   27 1
    44   27   31 1
    45   27   28 1
    46   27   51 1
    47   28   29 1
    48   28   52 1
    49   28   53 1
    50   29   30 1
    51   29   54 1
    52   29   55 1
    53   30   31 am
    54   30   33 1
    55   31   32 2
    56   33   38 ar
    57   33   34 ar
    58   34   35 ar
    59   34   56 1
    60   35   36 ar
    61   35   57 1
    62   36   37 ar
    63   36   58 1
    64   37   38 ar
    65   37   59 1
    66   38   60 1
@<TRIPOS>MOLECULE
CHEMBL602472
   45    48     0     0     0
SMALL
USER_CHARGES

@<TRIPOS>ATOM
      1 C1         -0.0428    1.2733    0.3461 C.3       1 <0>        -0.1798
      2 C2         -0.0148   -0.2290    0.0576 C.3       1 <0>         0.1176
      3 H1          0.5029   -0.7447    0.8664 H         1 <0>         0.0966
      4 C3         -1.4262   -0.7469   -0.0462 C.ar      1 <0>        -0.0474
      5 C4         -2.1774   -0.4859   -1.1785 C.ar      1 <0>        -0.0157
      6 C5         -3.4730   -0.9610   -1.2746 C.ar      1 <0>        -0.0776
      7 C6         -4.0184   -1.6974   -0.2398 C.ar      1 <0>        -0.1231
      8 C7         -3.2683   -1.9597    0.8933 C.ar      1 <0>         0.1170
      9 C8         -1.9686   -1.4878    0.9876 C.ar      1 <0>        -0.0572
     10 Cl1        -1.0241   -1.8216    2.4054 Cl        1 <0>        -0.0283
     11 F1         -3.8012   -2.6790    1.9052 F         1 <0>        -0.1174
     12 Cl2        -1.4937    0.4387   -2.4790 Cl        1 <0>        -0.0238
     13 O1          0.6709   -0.4649   -1.1737 O.3       1 <0>        -0.2907
     14 C9          2.0259   -0.5530   -1.1182 C.ar      1 <0>         0.1277
     15 C10         2.6858   -0.3049    0.0895 C.ar      1 <0>        -0.1797
     16 C11         4.0403   -0.3850    0.1770 C.ar      1 <0>        -0.0513
     17 C12         4.7960   -0.7222   -0.9604 C.ar      1 <0>         0.1015
     18 C13         4.1271   -0.9737   -2.1844 C.ar      1 <0>        -0.0637
     19 C14         2.7273   -0.8884   -2.2414 C.ar      1 <0>        -0.1394
     20 C15         4.8868   -1.3109   -3.3204 C.ar      1 <0>        -0.0666
     21 C16         6.2449   -1.3808   -3.1901 C.ar      1 <0>        -0.0838
     22 C17         6.8391   -1.1215   -1.9573 C.ar      1 <0>         0.1836
     23 N1          6.1284   -0.8081   -0.9011 N.ar      1 <0>        -0.4725
     24 C18         7.0992   -1.7386   -4.3789 C.3       1 <0>        -0.0802
     25 C19         8.5859   -1.9985   -4.1277 C.3       1 <0>        -0.1443
     26 C20         8.1421   -0.7153   -4.8330 C.3       1 <0>        -0.1859
     27 C21         8.2363    0.5733   -4.0572 C.2       1 <0>         0.5398
     28 O2          7.5013    0.7673   -3.1122 O.2       1 <0>        -0.5240
     29 N2          9.1373    1.5100   -4.4136 N.am      1 <0>        -0.8506
     30 H2          0.9781    1.6479    0.4212 H         1 <0>         0.0764
     31 H3         -0.5605    1.7890   -0.4627 H         1 <0>         0.0772
     32 H4         -0.5659    1.4533    1.2853 H         1 <0>         0.0766
     33 H5         -4.0588   -0.7562   -2.1585 H         1 <0>         0.1549
     34 H6         -5.0302   -2.0677   -0.3152 H         1 <0>         0.1589
     35 H7          2.1108   -0.0452    0.9661 H         1 <0>         0.1348
     36 H8          4.5346   -0.1900    1.1172 H         1 <0>         0.1379
     37 H9          2.2083   -1.0828   -3.1683 H         1 <0>         0.1347
     38 H10         4.4093   -1.5091   -4.2686 H         1 <0>         0.1352
     39 H11         7.9138   -1.1805   -1.8691 H         1 <0>         0.1447
     40 H12         6.6074   -2.3319   -5.1497 H         1 <0>         0.1281
     41 H13         8.9460   -1.9107   -3.1027 H         1 <0>         0.1062
     42 H14         9.0725   -2.7631   -4.7333 H         1 <0>         0.1157
     43 H15         8.3367   -0.6357   -5.9025 H         1 <0>         0.1317
     44 H16         9.7252    1.3549   -5.1694 H         1 <0>         0.4021
     45 H17         9.1980    2.3395   -3.9143 H         1 <0>         0.4040
@<TRIPOS>BOND
     1    1    2 1
     2    1   30 1
     3    1   31 1
     4    1   32 1
     5    2    3 1
     6    2    4 1
     7    2   13 1
     8    4    9 ar
     9    4    5 ar
    10    5    6 ar
    11    5   12 1
    12    6    7 ar
    13    6   33 1
    14    7    8 ar
    15    7   34 1
    16    8    9 ar
    17    8   11 1
    18    9   10 1
    19   13   14 1
    20   14   19 ar
    21   14   15 ar
    22   15   16 ar
    23   15   35 1
    24   16   17 ar
    25   16   36 1
    26   17   23 ar
    27   17   18 ar
    28   18   19 ar
    29   18   20 ar
    30   19   37 1
    31   20   21 ar
    32   20   38 1
    33   21   22 ar
    34   21   24 1
    35   22   23 ar
    36   22   39 1
    37   24   26 1
    38   24   25 1
    39   24   40 1
    40   25   26 1
    41   25   41 1
    42   25   42 1
    43   26   27 1
    44   26   43 1
    45   27   28 2
    46   27   29 am
    47   29   44 1
    48   29   45 1
@<TRIPOS>MOLECULE
CHEMBL602472__1
   45    48     0     0     0
SMALL
USER_CHARGES

@<TRIPOS>ATOM
      1 C1         -0.0428    1.2733    0.3461 C.3       1 <0>        -0.1802
      2 C2         -0.0148   -0.2290    0.0576 C.3       1 <0>         0.1173
      3 H1          0.5029   -0.7447    0.8664 H         1 <0>         0.0972
      4 C3         -1.4262   -0.7469   -0.0462 C.ar      1 <0>        -0.0490
      5 C4         -2.1774   -0.4859   -1.1785 C.ar      1 <0>        -0.0156
      6 C5         -3.4730   -0.9610   -1.2746 C.ar      1 <0>        -0.0770
      7 C6         -4.0184   -1.6974   -0.2398 C.ar      1 <0>        -0.1221
      8 C7         -3.2683   -1.9597    0.8933 C.ar      1 <0>         0.1175
      9 C8         -1.9686   -1.4878    0.9876 C.ar      1 <0>        -0.0570
     10 Cl1        -1.0241   -1.8216    2.4054 Cl        1 <0>        -0.0282
     11 F1         -3.8012   -2.6790    1.9052 F         1 <0>        -0.1169
     12 Cl2        -1.4937    0.4387   -2.4790 Cl        1 <0>        -0.0237
     13 O1          0.6709   -0.4649   -1.1737 O.3       1 <0>        -0.2887
     14 C9          2.0259   -0.5530   -1.1182 C.ar      1 <0>         0.1370
     15 C10         2.6858   -0.3049    0.0895 C.ar      1 <0>        -0.1765
     16 C11         4.0403   -0.3850    0.1770 C.ar      1 <0>        -0.0478
     17 C12         4.7960   -0.7222   -0.9604 C.ar      1 <0>         0.0934
     18 C13         4.1271   -0.9737   -2.1844 C.ar      1 <0>        -0.0574
     19 C14         2.7273   -0.8884   -2.2414 C.ar      1 <0>        -0.1420
     20 C15         4.8868   -1.3109   -3.3204 C.ar      1 <0>        -0.0548
     21 C16         6.2449   -1.3808   -3.1901 C.ar      1 <0>        -0.0998
     22 C17         6.8391   -1.1215   -1.9573 C.ar      1 <0>         0.1217
     23 N1          6.1284   -0.8081   -0.9011 N.ar      1 <0>        -0.4585
     24 C18         7.0992   -1.7386   -4.3789 C.3       1 <0>        -0.0788
     25 C19         8.5859   -1.9985   -4.1277 C.3       1 <0>        -0.1410
     26 C20         8.1421   -0.7153   -4.8330 C.3       1 <0>        -0.1832
     27 C21         8.4111   -0.6052   -6.3117 C.2       1 <0>         0.5473
     28 O2          7.8099   -1.3130   -7.0917 O.2       1 <0>        -0.5407
     29 N2          9.3198    0.2797   -6.7672 N.am      1 <0>        -0.8506
     30 H2          0.9781    1.6479    0.4212 H         1 <0>         0.0762
     31 H3         -0.5605    1.7890   -0.4627 H         1 <0>         0.0781
     32 H4         -0.5659    1.4533    1.2853 H         1 <0>         0.0779
     33 H5         -4.0588   -0.7562   -2.1585 H         1 <0>         0.1554
     34 H6         -5.0302   -2.0677   -0.3152 H         1 <0>         0.1594
     35 H7          2.1108   -0.0452    0.9661 H         1 <0>         0.1382
     36 H8          4.5346   -0.1900    1.1172 H         1 <0>         0.1416
     37 H9          2.2083   -1.0828   -3.1683 H         1 <0>         0.1392
     38 H10         4.4093   -1.5091   -4.2686 H         1 <0>         0.1425
     39 H11         7.9138   -1.1805   -1.8691 H         1 <0>         0.1590
     40 H12         6.6074   -2.3319   -5.1497 H         1 <0>         0.1320
     41 H13         8.9460   -1.9107   -3.1027 H         1 <0>         0.1127
     42 H14         9.0725   -2.7631   -4.7333 H         1 <0>         0.1094
     43 H15         8.2102    0.2167   -4.2719 H         1 <0>         0.1284
     44 H16         9.8007    0.8457   -6.1434 H         1 <0>         0.4036
     45 H17         9.4930    0.3505   -7.7190 H         1 <0>         0.4044
@<TRIPOS>BOND
     1    1    2 1
     2    1   30 1
     3    1   31 1
     4    1   32 1
     5    2    3 1
     6    2    4 1
     7    2   13 1
     8    4    9 ar
     9    4    5 ar
    10    5    6 ar
    11    5   12 1
    12    6    7 ar
    13    6   33 1
    14    7    8 ar
    15    7   34 1
    16    8    9 ar
    17    8   11 1
    18    9   10 1
    19   13   14 1
    20   14   19 ar
    21   14   15 ar
    22   15   16 ar
    23   15   35 1
    24   16   17 ar
    25   16   36 1
    26   17   23 ar
    27   17   18 ar
    28   18   19 ar
    29   18   20 ar
    30   19   37 1
    31   20   21 ar
    32   20   38 1
    33   21   22 ar
    34   21   24 1
    35   22   23 ar
    36   22   39 1
    37   24   26 1
    38   24   25 1
    39   24   40 1
    40   25   26 1
    41   25   41 1
    42   25   42 1
    43   26   27 1
    44   26   43 1
    45   27   28 2
    46   27   29 am
    47   29   44 1
    48   29   45 1
@<TRIPOS>MOLECULE
CHEMBL602472__2
   45    48     0     0     0
SMALL
USER_CHARGES

@<TRIPOS>ATOM
      1 C1         -0.0428    1.2733    0.3461 C.3       1 <0>        -0.1802
      2 C2         -0.0148   -0.2290    0.0576 C.3       1 <0>         0.1173
      3 H1          0.5029   -0.7447    0.8664 H         1 <0>         0.0971
      4 C3         -1.4262   -0.7469   -0.0462 C.ar      1 <0>        -0.0490
      5 C4         -2.1774   -0.4859   -1.1785 C.ar      1 <0>        -0.0157
      6 C5         -3.4730   -0.9610   -1.2746 C.ar      1 <0>        -0.0770
      7 C6         -4.0184   -1.6974   -0.2398 C.ar      1 <0>        -0.1221
      8 C7         -3.2683   -1.9597    0.8933 C.ar      1 <0>         0.1174
      9 C8         -1.9686   -1.4878    0.9876 C.ar      1 <0>        -0.0570
     10 Cl1        -1.0241   -1.8216    2.4054 Cl        1 <0>        -0.0284
     11 F1         -3.8012   -2.6790    1.9052 F         1 <0>        -0.1170
     12 Cl2        -1.4937    0.4387   -2.4790 Cl        1 <0>        -0.0234
     13 O1          0.6709   -0.4649   -1.1737 O.3       1 <0>        -0.2887
     14 C9          2.0259   -0.5530   -1.1182 C.ar      1 <0>         0.1370
     15 C10         2.6858   -0.3049    0.0895 C.ar      1 <0>        -0.1765
     16 C11         4.0403   -0.3850    0.1770 C.ar      1 <0>        -0.0478
     17 C12         4.7960   -0.7222   -0.9604 C.ar      1 <0>         0.0934
     18 C13         4.1271   -0.9737   -2.1844 C.ar      1 <0>        -0.0574
     19 C14         2.7273   -0.8884   -2.2414 C.ar      1 <0>        -0.1420
     20 C15         4.8868   -1.3109   -3.3204 C.ar      1 <0>        -0.0548
     21 C16         6.2449   -1.3808   -3.1901 C.ar      1 <0>        -0.0998
     22 C17         6.8391   -1.1215   -1.9573 C.ar      1 <0>         0.1217
     23 N1          6.1284   -0.8081   -0.9011 N.ar      1 <0>        -0.4585
     24 C18         7.0992   -1.7386   -4.3789 C.3       1 <0>        -0.0788
     25 C19         8.6155   -1.6045   -4.2250 C.3       1 <0>        -0.1410
     26 C20         7.9709   -2.9913   -4.2709 C.3       1 <0>        -0.1832
     27 C21         8.1701   -3.8103   -5.5202 C.2       1 <0>         0.5473
     28 O2          7.6479   -3.4674   -6.5597 O.2       1 <0>        -0.5408
     29 N2          8.9286   -4.9237   -5.4823 N.am      1 <0>        -0.8506
     30 H2          0.9781    1.6479    0.4212 H         1 <0>         0.0763
     31 H3         -0.5605    1.7890   -0.4627 H         1 <0>         0.0782
     32 H4         -0.5659    1.4533    1.2853 H         1 <0>         0.0779
     33 H5         -4.0588   -0.7562   -2.1585 H         1 <0>         0.1554
     34 H6         -5.0302   -2.0677   -0.3152 H         1 <0>         0.1594
     35 H7          2.1108   -0.0452    0.9661 H         1 <0>         0.1382
     36 H8          4.5346   -0.1900    1.1172 H         1 <0>         0.1416
     37 H9          2.2083   -1.0828   -3.1683 H         1 <0>         0.1392
     38 H10         4.4093   -1.5091   -4.2686 H         1 <0>         0.1425
     39 H11         7.9138   -1.1805   -1.8691 H         1 <0>         0.1590
     40 H12         6.6694   -1.5070   -5.3534 H         1 <0>         0.1321
     41 H13         9.1837   -1.2844   -5.0985 H         1 <0>         0.1094
     42 H14         8.9952   -1.2575   -3.2640 H         1 <0>         0.1127
     43 H15         7.9265   -3.5567   -3.3400 H         1 <0>         0.1284
     44 H16         9.3463   -5.1979   -4.6509 H         1 <0>         0.4036
     45 H17         9.0568   -5.4508   -6.2864 H         1 <0>         0.4045
@<TRIPOS>BOND
     1    1    2 1
     2    1   30 1
     3    1   31 1
     4    1   32 1
     5    2    3 1
     6    2    4 1
     7    2   13 1
     8    4    9 ar
     9    4    5 ar
    10    5    6 ar
    11    5   12 1
    12    6    7 ar
    13    6   33 1
    14    7    8 ar
    15    7   34 1
    16    8    9 ar
    17    8   11 1
    18    9   10 1
    19   13   14 1
    20   14   19 ar
    21   14   15 ar
    22   15   16 ar
    23   15   35 1
    24   16   17 ar
    25   16   36 1
    26   17   23 ar
    27   17   18 ar
    28   18   19 ar
    29   18   20 ar
    30   19   37 1
    31   20   21 ar
    32   20   38 1
    33   21   22 ar
    34   21   24 1
    35   22   23 ar
    36   22   39 1
    37   24   26 1
    38   24   25 1
    39   24   40 1
    40   25   26 1
    41   25   41 1
    42   25   42 1
    43   26   27 1
    44   26   43 1
    45   27   28 2
    46   27   29 am
    47   29   44 1
    48   29   45 1
@<TRIPOS>MOLECULE
CHEMBL602472__3
   45    48     0     0     0
SMALL
USER_CHARGES

@<TRIPOS>ATOM
      1 C1         -0.0428    1.2733    0.3461 C.3       1 <0>        -0.1795
      2 C2         -0.0148   -0.2290    0.0576 C.3       1 <0>         0.1174
      3 H1          0.5029   -0.7447    0.8664 H         1 <0>         0.0964
      4 C3         -1.4262   -0.7469   -0.0462 C.ar      1 <0>        -0.0475
      5 C4         -2.1774   -0.4859   -1.1785 C.ar      1 <0>        -0.0156
      6 C5         -3.4730   -0.9610   -1.2746 C.ar      1 <0>        -0.0776
      7 C6         -4.0184   -1.6974   -0.2398 C.ar      1 <0>        -0.1231
      8 C7         -3.2683   -1.9597    0.8933 C.ar      1 <0>         0.1169
      9 C8         -1.9686   -1.4878    0.9876 C.ar      1 <0>        -0.0573
     10 Cl1        -1.0241   -1.8216    2.4054 Cl        1 <0>        -0.0282
     11 F1         -3.8012   -2.6790    1.9052 F         1 <0>        -0.1174
     12 Cl2        -1.4937    0.4387   -2.4790 Cl        1 <0>        -0.0238
     13 O1          0.6709   -0.4649   -1.1737 O.3       1 <0>        -0.2907
     14 C9          2.0259   -0.5530   -1.1182 C.ar      1 <0>         0.1277
     15 C10         2.6858   -0.3049    0.0895 C.ar      1 <0>        -0.1796
     16 C11         4.0403   -0.3850    0.1770 C.ar      1 <0>        -0.0514
     17 C12         4.7960   -0.7222   -0.9604 C.ar      1 <0>         0.1015
     18 C13         4.1271   -0.9737   -2.1844 C.ar      1 <0>        -0.0638
     19 C14         2.7273   -0.8884   -2.2414 C.ar      1 <0>        -0.1394
     20 C15         4.8868   -1.3109   -3.3204 C.ar      1 <0>        -0.0666
     21 C16         6.2449   -1.3808   -3.1901 C.ar      1 <0>        -0.0838
     22 C17         6.8391   -1.1215   -1.9573 C.ar      1 <0>         0.1837
     23 N1          6.1284   -0.8081   -0.9011 N.ar      1 <0>        -0.4725
     24 C18         7.0992   -1.7386   -4.3789 C.3       1 <0>        -0.0801
     25 C19         8.6155   -1.6045   -4.2250 C.3       1 <0>        -0.1443
     26 C20         7.9709   -2.9913   -4.2709 C.3       1 <0>        -0.1859
     27 C21         7.9095   -3.7730   -2.9839 C.2       1 <0>         0.5397
     28 O2          7.1878   -3.4016   -2.0827 O.2       1 <0>        -0.5239
     29 N2          8.6565   -4.8848   -2.8344 N.am      1 <0>        -0.8506
     30 H2          0.9781    1.6479    0.4212 H         1 <0>         0.0765
     31 H3         -0.5605    1.7890   -0.4627 H         1 <0>         0.0773
     32 H4         -0.5659    1.4533    1.2853 H         1 <0>         0.0765
     33 H5         -4.0588   -0.7562   -2.1585 H         1 <0>         0.1549
     34 H6         -5.0302   -2.0677   -0.3152 H         1 <0>         0.1589
     35 H7          2.1108   -0.0452    0.9661 H         1 <0>         0.1348
     36 H8          4.5346   -0.1900    1.1172 H         1 <0>         0.1379
     37 H9          2.2083   -1.0828   -3.1683 H         1 <0>         0.1347
     38 H10         4.4093   -1.5091   -4.2686 H         1 <0>         0.1352
     39 H11         7.9138   -1.1805   -1.8691 H         1 <0>         0.1446
     40 H12         6.6694   -1.5070   -5.3534 H         1 <0>         0.1281
     41 H13         9.1837   -1.2844   -5.0985 H         1 <0>         0.1157
     42 H14         8.9952   -1.2575   -3.2640 H         1 <0>         0.1062
     43 H15         8.1150   -3.5837   -5.1745 H         1 <0>         0.1317
     44 H16         9.2337   -5.1818   -3.5552 H         1 <0>         0.4021
     45 H17         8.6170   -5.3879   -2.0060 H         1 <0>         0.4040
@<TRIPOS>BOND
     1    1    2 1
     2    1   30 1
     3    1   31 1
     4    1   32 1
     5    2    3 1
     6    2    4 1
     7    2   13 1
     8    4    9 ar
     9    4    5 ar
    10    5    6 ar
    11    5   12 1
    12    6    7 ar
    13    6   33 1
    14    7    8 ar
    15    7   34 1
    16    8    9 ar
    17    8   11 1
    18    9   10 1
    19   13   14 1
    20   14   19 ar
    21   14   15 ar
    22   15   16 ar
    23   15   35 1
    24   16   17 ar
    25   16   36 1
    26   17   23 ar
    27   17   18 ar
    28   18   19 ar
    29   18   20 ar
    30   19   37 1
    31   20   21 ar
    32   20   38 1
    33   21   22 ar
    34   21   24 1
    35   22   23 ar
    36   22   39 1
    37   24   26 1
    38   24   25 1
    39   24   40 1
    40   25   26 1
    41   25   41 1
    42   25   42 1
    43   26   27 1
    44   26   43 1
    45   27   28 2
    46   27   29 am
    47   29   44 1
    48   29   45 1
@<TRIPOS>MOLECULE
CHEMBL1086932
   59    64     0     0     0
SMALL
USER_CHARGES

@<TRIPOS>ATOM
      1 C1          1.7616   -5.1680   -2.1311 C.3       1 <0>        -0.1097
      2 C2          1.0770   -4.1030   -1.3137 C.2       1 <0>         0.1755
      3 C3          0.5517   -2.9182   -1.7899 C.2       1 <0>        -0.3012
      4 C4          0.0083   -2.2277   -0.6828 C.2       1 <0>         0.0915
      5 N1          0.1993   -2.9568    0.3823 N.2       1 <0>        -0.2832
      6 N2          0.8597   -4.1341    0.0138 N.pl3     1 <0>        -0.3084
      7 C5          1.2343   -5.1693    0.8812 C.ar      1 <0>         0.1367
      8 C6          1.2042   -6.4872    0.4453 C.ar      1 <0>        -0.1267
      9 C7          1.5738   -7.5052    1.3025 C.ar      1 <0>        -0.0983
     10 C8          1.9736   -7.2129    2.5936 C.ar      1 <0>        -0.1130
     11 C9          2.0046   -5.9013    3.0306 C.ar      1 <0>        -0.1006
     12 C10         1.6416   -4.8785    2.1763 C.ar      1 <0>        -0.1031
     13 C11         0.5570   -2.4592   -3.1905 C.2       1 <0>         0.6029
     14 O1          1.0599   -3.1509   -4.0552 O.2       1 <0>        -0.5194
     15 N3          0.0045   -1.2729   -3.5129 N.am      1 <0>        -0.6696
     16 C12         0.0818   -0.7990   -4.8284 C.ar      1 <0>         0.1911
     17 C13         0.2281    0.5609   -5.0692 C.ar      1 <0>        -0.1416
     18 C14         0.3039    1.0288   -6.3663 C.ar      1 <0>        -0.0676
     19 C15         0.2345    0.1412   -7.4297 C.ar      1 <0>         0.0220
     20 C16         0.0882   -1.2196   -7.1906 C.ar      1 <0>         0.1214
     21 C17         0.0180   -1.6891   -5.8920 C.ar      1 <0>        -0.1485
     22 F1          0.0197   -2.0842   -8.2264 F         1 <0>        -0.1210
     23 O2          0.3093    0.6029   -8.7067 O.3       1 <0>        -0.2370
     24 C18        -0.8518    0.8818   -9.3526 C.ar      1 <0>         0.2129
     25 C19        -2.0853    0.6026   -8.7662 C.ar      1 <0>        -0.2404
     26 C20        -3.2350    0.9094   -9.4737 C.ar      1 <0>         0.1588
     27 N4         -3.2018    1.4486  -10.6662 N.ar      1 <0>        -0.4783
     28 C21        -2.0446    1.7483  -11.2999 C.ar      1 <0>         0.1651
     29 C22        -0.8477    1.4567  -10.6098 C.ar      1 <0>        -0.2096
     30 S1          0.4198    1.9878  -11.7319 S.3       1 <0>         0.1033
     31 C23        -0.6323    2.5749  -13.0485 C.2       1 <0>        -0.0121
     32 C24        -1.8797    2.3249  -12.5732 C.2       1 <0>        -0.1347
     33 C25        -0.2420    3.1732  -14.3429 C.2       1 <0>         0.0623
     34 C26         1.0298    3.3851  -14.7792 C.2       1 <0>        -0.0157
     35 N5          0.9296    3.9532  -16.0176 N.pl3     1 <0>        -0.4589
     36 C27        -0.3857    4.0728  -16.3039 C.2       1 <0>         0.1964
     37 N6         -1.0824    3.6025  -15.3081 N.2       1 <0>        -0.4699
     38 C28         2.0440    4.3589  -16.8776 C.3       1 <0>         0.0691
     39 H1          1.0215   -5.8846   -2.4871 H         1 <0>         0.0937
     40 H2          2.2605   -4.7070   -2.9837 H         1 <0>         0.1102
     41 H3          2.4981   -5.6825   -1.5139 H         1 <0>         0.0798
     42 H4         -0.4797   -1.2648   -0.7131 H         1 <0>         0.1965
     43 H5          0.8917   -6.7162   -0.5628 H         1 <0>         0.1351
     44 H6          1.5502   -8.5306    0.9642 H         1 <0>         0.1369
     45 H7          2.2618   -8.0106    3.2621 H         1 <0>         0.1330
     46 H8          2.3170   -5.6762    4.0396 H         1 <0>         0.1357
     47 H9          1.6707   -3.8540    2.5166 H         1 <0>         0.1355
     48 H10        -0.4467   -0.7474   -2.8338 H         1 <0>         0.4160
     49 H11         0.2823    1.2528   -4.2417 H         1 <0>         0.1457
     50 H12         0.4170    2.0866   -6.5528 H         1 <0>         0.1491
     51 H13        -0.0913   -2.7472   -5.7052 H         1 <0>         0.1623
     52 H14        -2.1426    0.1574   -7.7839 H         1 <0>         0.1472
     53 H15        -4.1943    0.6959   -9.0257 H         1 <0>         0.1663
     54 H16        -2.7451    2.5825  -13.1657 H         1 <0>         0.1544
     55 H17         1.9411    3.1504  -14.2491 H         1 <0>         0.1825
     56 H18        -0.7939    4.4873  -17.2139 H         1 <0>         0.2140
     57 H19         2.3293    3.5257  -17.5200 H         1 <0>         0.0827
     58 H20         1.7384    5.2046  -17.4937 H         1 <0>         0.0934
     59 H21         2.8937    4.6482  -16.2591 H         1 <0>         0.0896
@<TRIPOS>BOND
     1    1    2 1
     2    1   39 1
     3    1   40 1
     4    1   41 1
     5    2    6 1
     6    2    3 2
     7    3    4 1
     8    3   13 1
     9    4    5 2
    10    4   42 1
    11    5    6 1
    12    6    7 1
    13    7   12 ar
    14    7    8 ar
    15    8    9 ar
    16    8   43 1
    17    9   10 ar
    18    9   44 1
    19   10   11 ar
    20   10   45 1
    21   11   12 ar
    22   11   46 1
    23   12   47 1
    24   13   14 2
    25   13   15 am
    26   15   16 1
    27   15   48 1
    28   16   21 ar
    29   16   17 ar
    30   17   18 ar
    31   17   49 1
    32   18   19 ar
    33   18   50 1
    34   19   20 ar
    35   19   23 1
    36   20   21 ar
    37   20   22 1
    38   21   51 1
    39   23   24 1
    40   24   29 ar
    41   24   25 ar
    42   25   26 ar
    43   25   52 1
    44   26   27 ar
    45   26   53 1
    46   27   28 ar
    47   28   32 1
    48   28   29 ar
    49   29   30 1
    50   30   31 1
    51   31   32 2
    52   31   33 1
    53   32   54 1
    54   33   37 1
    55   33   34 2
    56   34   35 1
    57   34   55 1
    58   35   36 1
    59   35   38 1
    60   36   37 2
    61   36   56 1
    62   38   57 1
    63   38   58 1
    64   38   59 1
