@<TRIPOS>MOLECULE
3LQ8-88Z
 80 85 0 0 0
SMALL
SF_CHARGES


@<TRIPOS>ATOM
1    C        -4.1270    3.1380   30.7040  C.2        1 SUBUNIT      0.1507
2    C        -5.0100    4.3010   30.5130  C.2        1 SUBUNIT      0.1443
3    C        -4.5070    5.6010   30.3670  C.2        1 SUBUNIT     -0.1370
4    C        -3.1310    5.7950   30.3810  C.2        1 SUBUNIT      0.2666
5    C        -2.2500    4.6130   30.5820  C.2        1 SUBUNIT     -0.0424
6    C        -2.7380    3.3300   30.7410  C.2        1 SUBUNIT     -0.1203
7    N        -2.5880    7.0190   30.2290  N.2        1 SUBUNIT     -0.5052
8    C        -1.2580    7.2500   30.2170  C.2        1 SUBUNIT      0.1714
9    C        -0.3540    6.1810   30.4530  C.2        1 SUBUNIT     -0.1377
10   C        -0.8220    4.8600   30.6120  C.2        1 SUBUNIT      0.1430
11   O        -4.7660    1.9090   30.8150  O.3        1 SUBUNIT     -0.3871
12   C        -4.0970    0.6650   31.0330  C.3        1 SUBUNIT      0.1555
13   O        -6.3280    3.9790   30.5020  O.3        1 SUBUNIT     -0.3920
14   O        -0.0100    3.7510   30.7610  O.3        1 SUBUNIT     -0.3476
15   C         1.2820    3.8340   30.3260  C.2        1 SUBUNIT      0.1329
16   C         1.6580    3.7710   28.9990  C.2        1 SUBUNIT     -0.1199
17   C         2.9920    3.8710   28.6730  C.2        1 SUBUNIT     -0.1168
18   C         3.9860    4.0490   29.6490  C.2        1 SUBUNIT      0.1133
19   C         3.6530    4.0910   30.9980  C.2        1 SUBUNIT     -0.1285
20   C         2.3080    4.0020   31.3610  C.2        1 SUBUNIT      0.1264
21   F         1.8570    4.0670   32.6250  F          1 SUBUNIT     -0.1919
22   N         5.2660    4.1510   29.2260  N.am       1 SUBUNIT     -0.5291
23   C        -7.3870    4.9350   30.6280  C.3        1 SUBUNIT      0.1984
24   C        -8.6720    4.1240   30.7980  C.3        1 SUBUNIT     -0.0867
25   C        -9.1570    3.8610   29.3920  C.3        1 SUBUNIT      0.1500
26   N       -10.3380    3.0260   29.3180  N.3        1 SUBUNIT     -0.4862
27   C       -10.6240    2.5090   27.9740  C.3        1 SUBUNIT      0.1321
28   C       -12.1230    2.2180   27.8660  C.3        1 SUBUNIT      0.1847
29   O       -12.4340    1.3970   28.9820  O.3        1 SUBUNIT     -0.4358
30   C       -12.3360    2.2120   30.1590  C.3        1 SUBUNIT      0.1847
31   C       -10.8380    2.3140   30.4910  C.3        1 SUBUNIT      0.1321
32   C         6.4110    3.8540   29.8760  C.2        1 SUBUNIT      0.6296
33   C         7.7140    3.9280   29.1010  C.3        1 SUBUNIT     -0.0089
34   C         7.6440    4.1760   27.5770  C.2        1 SUBUNIT      0.6292
35   N         8.7740    4.3730   26.8710  N.am       1 SUBUNIT     -0.5338
36   O         6.4690    3.5060   31.0310  O.2        1 SUBUNIT     -0.5468
37   O         6.5800    4.5870   27.0980  O.2        1 SUBUNIT     -0.5467
38   C         8.7450    4.5550   25.5100  C.2        1 SUBUNIT      0.1117
39   C         8.1720    5.7060   24.9340  C.2        1 SUBUNIT     -0.1163
40   C         8.1180    5.9050   23.5480  C.2        1 SUBUNIT     -0.1181
41   C         8.7120    4.9090   22.7350  C.2        1 SUBUNIT      0.1380
42   C         9.2930    3.7690   23.2980  C.2        1 SUBUNIT     -0.1181
43   C         9.3470    3.5810   24.6850  C.2        1 SUBUNIT     -0.1163
44   F         8.7230    5.0430   21.3910  F          1 SUBUNIT     -0.1938
45   C         8.6780    2.8460   29.6270  C.3        1 SUBUNIT     -0.0683
46   C         8.9860    4.3190   29.8840  C.3        1 SUBUNIT     -0.0683
47   H        -5.1720    6.4382   30.2458  H          1 SUBUNIT      0.1147
48   H        -2.0637    2.5047   30.8889  H          1 SUBUNIT      0.1154
49   H        -0.9097    8.2501   30.0267  H          1 SUBUNIT      0.0883
50   H         0.7022    6.3776   30.5119  H          1 SUBUNIT      0.1167
51   H        -3.3932    0.4505   30.2220  H          1 SUBUNIT      0.0419
52   H        -4.8130   -0.1618   31.0847  H          1 SUBUNIT      0.0419
53   H        -3.5337    0.6816   31.9719  H          1 SUBUNIT      0.0419
54   H         0.9184    3.6453   28.2277  H          1 SUBUNIT      0.1180
55   H         3.2711    3.8096   27.6357  H          1 SUBUNIT      0.1180
56   H         4.4193    4.1903   31.7468  H          1 SUBUNIT      0.1178
57   H         5.3833    4.5000   28.2876  H          1 SUBUNIT      0.3300
58   H        -7.2052    5.5707   31.5008  H          1 SUBUNIT      0.0391
59   H        -7.4302    5.5553   29.7267  H          1 SUBUNIT      0.0391
60   H        -8.4687    3.1804   31.3151  H          1 SUBUNIT      0.0569
61   H        -9.4188    4.6950   31.3595  H          1 SUBUNIT      0.0569
62   H        -9.3952    4.8177   28.9155  H          1 SUBUNIT      0.0395
63   H        -8.3603    3.3615   28.8309  H          1 SUBUNIT      0.0395
64   H       -10.3312    3.2585   27.2314  H          1 SUBUNIT      0.0353
65   H       -10.0494    1.5909   27.8129  H          1 SUBUNIT      0.0353
66   H       -12.7107    3.1406   27.9139  H          1 SUBUNIT      0.0319
67   H       -12.3576    1.6829   26.9399  H          1 SUBUNIT      0.0319
68   H       -12.7611    3.2002   29.9548  H          1 SUBUNIT      0.0319
69   H       -12.8882    1.7386   30.9775  H          1 SUBUNIT      0.0319
70   H       -10.3693    1.3285   30.5811  H          1 SUBUNIT      0.0353
71   H       -10.6582    2.8892   31.4052  H          1 SUBUNIT      0.0353
72   H         9.6551    4.3855   27.3605  H          1 SUBUNIT      0.3189
73   H         7.7599    6.4617   25.5797  H          1 SUBUNIT      0.1052
74   H         7.6462    6.7754   23.1265  H          1 SUBUNIT      0.1052
75   H         9.7087    3.0181   22.6491  H          1 SUBUNIT      0.1052
76   H         9.8339    2.7184   25.1052  H          1 SUBUNIT      0.1052
77   H         8.3738    2.1994   30.4567  H          1 SUBUNIT      0.0452
78   H         9.2937    2.2743   28.9248  H          1 SUBUNIT      0.0452
79   H         9.8215    4.8006   29.3653  H          1 SUBUNIT      0.0452
80   H         8.9015    4.7257   30.8972  H          1 SUBUNIT      0.0452
@<TRIPOS>BOND
     1    1    2 2
     2    1    6 1
     3    1   11 1
     4    2    3 1
     5    2   13 1
     6    3    4 2
     7    4    5 1
     8    4    7 1
     9    5    6 2
    10    5   10 1
    11    7    8 2
    12    8    9 1
    13    9   10 2
    14   10   14 1
    15   11   12 1
    16   13   23 1
    17   14   15 1
    18   15   16 1
    19   15   20 2
    20   16   17 2
    21   17   18 1
    22   18   19 2
    23   18   22 1
    24   19   20 1
    25   20   21 1
    26   22   32 1
    27   23   24 1
    28   24   25 1
    29   25   26 1
    30   26   27 1
    31   26   31 1
    32   27   28 1
    33   28   29 1
    34   29   30 1
    35   30   31 1
    36   32   33 1
    37   32   36 2
    38   33   34 1
    39   33   45 1
    40   33   46 1
    41   34   35 1
    42   34   37 2
    43   35   38 1
    44   38   39 2
    45   38   43 1
    46   39   40 1
    47   40   41 2
    48   41   42 1
    49   41   44 1
    50   42   43 2
    51   45   46 1
    52    3   47 1
    53    6   48 1
    54    8   49 1
    55    9   50 1
    56   12   51 1
    57   12   52 1
    58   12   53 1
    59   16   54 1
    60   17   55 1
    61   19   56 1
    62   22   57 1
    63   23   58 1
    64   23   59 1
    65   24   60 1
    66   24   61 1
    67   25   62 1
    68   25   63 1
    69   27   64 1
    70   27   65 1
    71   28   66 1
    72   28   67 1
    73   30   68 1
    74   30   69 1
    75   31   70 1
    76   31   71 1
    77   35   72 1
    78   39   73 1
    79   40   74 1
    80   42   75 1
    81   43   76 1
    82   45   77 1
    83   45   78 1
    84   46   79 1
    85   46   80 1
