@<TRIPOS>MOLECULE
CHEMBL1163892
   49    53     0     0     0
SMALL
USER_CHARGES

@<TRIPOS>ATOM
      1 C1          0.2409    1.9594    0.7269 C.ar      1 <0>        -0.1179
      2 C2          1.4867    2.5586    0.7247 C.ar      1 <0>        -0.1200
      3 C3          2.6232    1.7898    0.5567 C.ar      1 <0>        -0.1142
      4 C4          2.5140    0.4217    0.3914 C.ar      1 <0>        -0.0789
      5 C5          1.2683   -0.1776    0.3946 C.ar      1 <0>        -0.0968
      6 C6          0.1317    0.5913    0.5612 C.ar      1 <0>        -0.1201
      7 C7          3.7529   -0.4162    0.2073 C.3       1 <0>         0.0951
      8 N1          4.2425   -0.8611    1.5189 N.3       1 <0>        -0.5081
      9 C8          4.6953    0.2800    2.3268 C.3       1 <0>         0.0308
     10 C9          4.8271   -0.1529    3.7935 C.3       1 <0>        -0.0415
     11 C10         5.6176   -1.4365    3.8309 C.2       1 <0>        -0.1452
     12 C11         6.2709   -2.0778    4.9499 C.ar      1 <0>        -0.0911
     13 C12         6.3847   -1.7436    6.3032 C.ar      1 <0>        -0.0539
     14 C13         7.0985   -2.6069    7.0986 C.ar      1 <0>        -0.0600
     15 C14         7.6835   -3.7584    6.5950 C.ar      1 <0>        -0.0940
     16 C15         7.5864   -4.1128    5.2607 C.ar      1 <0>        -0.1145
     17 C16         6.8678   -3.2558    4.4300 C.ar      1 <0>         0.1045
     18 N2          6.5832   -3.3014    3.0944 N.pl3     1 <0>        -0.5741
     19 H1          6.8685   -4.0014    2.4867 H         1 <0>         0.4168
     20 C17         5.8354   -2.2107    2.7433 C.2       1 <0>         0.0812
     21 C18         5.3038   -1.8701    1.3712 C.3       1 <0>         0.1932
     22 C19         6.4166   -1.3138    0.5208 C.ar      1 <0>        -0.1070
     23 C20         7.3071   -0.4023    1.0581 C.ar      1 <0>        -0.1113
     24 C21         8.3290    0.1099    0.2805 C.ar      1 <0>        -0.1018
     25 C22         8.4627   -0.2876   -1.0359 C.ar      1 <0>        -0.1387
     26 C23         7.5708   -1.2017   -1.5772 C.ar      1 <0>         0.1068
     27 C24         6.5496   -1.7190   -0.7929 C.ar      1 <0>        -0.1322
     28 O1          7.7002   -1.5943   -2.8718 O.3       1 <0>        -0.4979
     29 Cl1         7.2738   -2.2440    8.7871 Cl        1 <0>        -0.0790
     30 H2         -0.6467    2.5594    0.8627 H         1 <0>         0.1212
     31 H3          1.5719    3.6275    0.8538 H         1 <0>         0.1217
     32 H4          3.5964    2.2581    0.5542 H         1 <0>         0.1185
     33 H5          1.1830   -1.2464    0.2651 H         1 <0>         0.1219
     34 H6         -0.8415    0.1231    0.5633 H         1 <0>         0.1220
     35 H7          3.5157   -1.2856   -0.4060 H         1 <0>         0.0846
     36 H8          4.5229    0.1771   -0.2858 H         1 <0>         0.0508
     37 H9          5.6629    0.6233    1.9609 H         1 <0>         0.0542
     38 H10         3.9697    1.0898    2.2507 H         1 <0>         0.0905
     39 H11         5.3494    0.6182    4.3597 H         1 <0>         0.0776
     40 H12         3.8373   -0.3171    4.2196 H         1 <0>         0.0816
     41 H13         5.9327   -0.8484    6.7042 H         1 <0>         0.1399
     42 H14         8.2341   -4.4004    7.2667 H         1 <0>         0.1324
     43 H15         8.0470   -5.0127    4.8807 H         1 <0>         0.1368
     44 H16         4.8949   -2.7661    0.9042 H         1 <0>         0.1042
     45 H17         7.2038   -0.0899    2.0867 H         1 <0>         0.1316
     46 H18         9.0231    0.8216    0.7024 H         1 <0>         0.1290
     47 H19         9.2607    0.1133   -1.6432 H         1 <0>         0.1299
     48 H20         5.8568   -2.4344   -1.2107 H         1 <0>         0.1293
     49 H21         8.2633   -2.3710   -2.9928 H         1 <0>         0.3920
@<TRIPOS>BOND
     1    1    6 ar
     2    1    2 ar
     3    1   30 1
     4    2    3 ar
     5    2   31 1
     6    3    4 ar
     7    3   32 1
     8    4    5 ar
     9    4    7 1
    10    5    6 ar
    11    5   33 1
    12    6   34 1
    13    7    8 1
    14    7   35 1
    15    7   36 1
    16    8   21 1
    17    8    9 1
    18    9   10 1
    19    9   37 1
    20    9   38 1
    21   10   11 1
    22   10   39 1
    23   10   40 1
    24   11   20 2
    25   11   12 1
    26   12   17 ar
    27   12   13 ar
    28   13   14 ar
    29   13   41 1
    30   14   15 ar
    31   14   29 1
    32   15   16 ar
    33   15   42 1
    34   16   17 ar
    35   16   43 1
    36   17   18 1
    37   18   19 1
    38   18   20 1
    39   20   21 1
    40   21   22 1
    41   21   44 1
    42   22   27 ar
    43   22   23 ar
    44   23   24 ar
    45   23   45 1
    46   24   25 ar
    47   24   46 1
    48   25   26 ar
    49   25   47 1
    50   26   27 ar
    51   26   28 1
    52   27   48 1
    53   28   49 1
@<TRIPOS>MOLECULE
CHEMBL1163892__1
   49    53     0     0     0
SMALL
USER_CHARGES

@<TRIPOS>ATOM
      1 C1         -0.0167    1.3781    0.0096 C.ar      1 <0>        -0.1176
      2 C2          1.1709    2.0855    0.0021 C.ar      1 <0>        -0.1197
      3 C3          2.3773    1.4107   -0.0130 C.ar      1 <0>        -0.1152
      4 C4          2.3960    0.0285   -0.0201 C.ar      1 <0>        -0.0781
      5 C5          1.2084   -0.6789   -0.0117 C.ar      1 <0>        -0.0959
      6 C6          0.0021   -0.0041    0.0020 C.ar      1 <0>        -0.1200
      7 C7          3.7112   -0.7071   -0.0376 C.3       1 <0>         0.0946
      8 N1          4.1530   -0.9531    1.3416 N.3       1 <0>        -0.5184
      9 C8          4.4546    0.3093    2.0311 C.3       1 <0>         0.0479
     10 C9          4.5298    0.0599    3.5437 C.3       1 <0>        -0.0405
     11 C10         5.4231   -1.1328    3.7751 C.2       1 <0>        -0.1451
     12 C11         6.0566   -1.5798    4.9954 C.ar      1 <0>        -0.0913
     13 C12         6.0556   -1.0850    6.3035 C.ar      1 <0>        -0.0538
     14 C13         6.7888   -1.7828    7.2324 C.ar      1 <0>        -0.0601
     15 C14         7.5000   -2.9257    6.9011 C.ar      1 <0>        -0.0939
     16 C15         7.5181   -3.4369    5.6151 C.ar      1 <0>        -0.1142
     17 C16         6.7837   -2.7491    4.6514 C.ar      1 <0>         0.1043
     18 N2          6.5891   -2.9723    3.3175 N.pl3     1 <0>        -0.5724
     19 H1          6.9711   -3.7075    2.8132 H         1 <0>         0.4169
     20 C17         5.7746   -2.0021    2.8003 C.2       1 <0>         0.0794
     21 C18         5.3038   -1.8701    1.3712 C.3       1 <0>         0.1961
     22 C19         4.8883   -3.2210    0.8482 C.ar      1 <0>        -0.0749
     23 C20         3.6519   -3.7415    1.1841 C.ar      1 <0>        -0.0886
     24 C21         3.2678   -4.9804    0.7059 C.ar      1 <0>        -0.1054
     25 C22         4.1190   -5.7020   -0.1087 C.ar      1 <0>        -0.1389
     26 C23         5.3597   -5.1822   -0.4471 C.ar      1 <0>         0.1044
     27 C24         5.7404   -3.9357    0.0292 C.ar      1 <0>        -0.1443
     28 O1          6.1988   -5.8900   -1.2483 O.3       1 <0>        -0.4991
     29 Cl1         6.8253   -1.2158    8.8728 Cl        1 <0>        -0.0793
     30 H2         -0.9591    1.9053    0.0259 H         1 <0>         0.1210
     31 H3          1.1563    3.1654    0.0076 H         1 <0>         0.1217
     32 H4          3.3051    1.9634   -0.0196 H         1 <0>         0.1192
     33 H5          1.2231   -1.7588   -0.0176 H         1 <0>         0.1212
     34 H6         -0.9258   -0.5567    0.0082 H         1 <0>         0.1217
     35 H7          3.5884   -1.6586   -0.5549 H         1 <0>         0.0879
     36 H8          4.4573   -0.1052   -0.5563 H         1 <0>         0.0462
     37 H9          5.4106    0.6965    1.6786 H         1 <0>         0.0407
     38 H10         3.6688    1.0349    1.8210 H         1 <0>         0.0928
     39 H11         4.9475    0.9351    4.0411 H         1 <0>         0.0781
     40 H12         3.5327   -0.1454    3.9333 H         1 <0>         0.0814
     41 H13         5.5044   -0.1956    6.5708 H         1 <0>         0.1398
     42 H14         8.0592   -3.4341    7.6726 H         1 <0>         0.1326
     43 H15         8.0764   -4.3282    5.3697 H         1 <0>         0.1369
     44 H16         6.1087   -1.4677    0.7561 H         1 <0>         0.0686
     45 H17         2.9854   -3.1793    1.8213 H         1 <0>         0.1367
     46 H18         2.3017   -5.3847    0.9697 H         1 <0>         0.1291
     47 H19         3.8188   -6.6702   -0.4815 H         1 <0>         0.1290
     48 H20         6.7039   -3.5267   -0.2367 H         1 <0>         0.1264
     49 H21         6.0864   -5.7103   -2.1918 H         1 <0>         0.3919
@<TRIPOS>BOND
     1    1    6 ar
     2    1    2 ar
     3    1   30 1
     4    2    3 ar
     5    2   31 1
     6    3    4 ar
     7    3   32 1
     8    4    5 ar
     9    4    7 1
    10    5    6 ar
    11    5   33 1
    12    6   34 1
    13    7    8 1
    14    7   35 1
    15    7   36 1
    16    8   21 1
    17    8    9 1
    18    9   10 1
    19    9   37 1
    20    9   38 1
    21   10   11 1
    22   10   39 1
    23   10   40 1
    24   11   20 2
    25   11   12 1
    26   12   17 ar
    27   12   13 ar
    28   13   14 ar
    29   13   41 1
    30   14   15 ar
    31   14   29 1
    32   15   16 ar
    33   15   42 1
    34   16   17 ar
    35   16   43 1
    36   17   18 1
    37   18   19 1
    38   18   20 1
    39   20   21 1
    40   21   22 1
    41   21   44 1
    42   22   27 ar
    43   22   23 ar
    44   23   24 ar
    45   23   45 1
    46   24   25 ar
    47   24   46 1
    48   25   26 ar
    49   25   47 1
    50   26   27 ar
    51   26   28 1
    52   27   48 1
    53   28   49 1
@<TRIPOS>MOLECULE
CHEMBL1173703
   34    36     0     0     0
SMALL
USER_CHARGES

@<TRIPOS>ATOM
      1 C1         -0.0187    1.5258    0.0104 C.3       1 <0>        -0.1394
      2 C2          0.0021   -0.0041    0.0020 C.3       1 <0>        -0.0294
      3 C3          0.7421   -0.5109    1.2415 C.3       1 <0>        -0.1394
      4 C4         -1.4333   -0.5336    0.0129 C.3       1 <0>        -0.1451
      5 C5          0.7074   -0.4901   -1.2379 C.ar      1 <0>        -0.0329
      6 C6          0.0283   -1.2865   -2.1473 C.ar      1 <0>        -0.1503
      7 C7          0.6628   -1.7369   -3.2846 C.ar      1 <0>        -0.0588
      8 C8          1.9912   -1.3895   -3.5194 C.ar      1 <0>        -0.1098
      9 C9          2.9418   -1.6926   -4.6050 C.ar      1 <0>        -0.1046
     10 C10         2.8483   -2.4330   -5.7811 C.ar      1 <0>        -0.0623
     11 C11         3.9403   -2.5325   -6.6159 C.ar      1 <0>        -0.1509
     12 C12         5.1294   -1.8987   -6.2886 C.ar      1 <0>        -0.0840
     13 C13         5.2354   -1.1631   -5.1281 C.ar      1 <0>        -0.1444
     14 C14         4.1437   -1.0507   -4.2722 C.ar      1 <0>         0.1397
     15 N1          3.9676   -0.3919   -3.0685 N.pl3     1 <0>        -0.6184
     16 H1          4.6493    0.1300   -2.6172 H         1 <0>         0.4164
     17 C15         2.6799   -0.5840   -2.6006 C.ar      1 <0>         0.1443
     18 C16         2.0201   -0.1344   -1.4606 C.ar      1 <0>        -0.1405
     19 H2          1.0039    1.9031    0.0027 H         1 <0>         0.0559
     20 H3         -0.5459    1.8868   -0.8726 H         1 <0>         0.0576
     21 H4         -0.5289    1.8773    0.9072 H         1 <0>         0.0599
     22 H5          0.2319   -0.1594    2.1383 H         1 <0>         0.0599
     23 H6          0.7568   -1.6008    1.2356 H         1 <0>         0.0576
     24 H7          1.7647   -0.1336    1.2338 H         1 <0>         0.0559
     25 H8         -1.9605   -0.1726   -0.8702 H         1 <0>         0.0604
     26 H9         -1.4185   -1.6235    0.0069 H         1 <0>         0.0603
     27 H10        -1.9435   -0.1821    0.9097 H         1 <0>         0.0593
     28 H11        -1.0015   -1.5550   -1.9634 H         1 <0>         0.1317
     29 H12         0.1320   -2.3574   -3.9915 H         1 <0>         0.1250
     30 H13         1.9233   -2.9277   -6.0378 H         1 <0>         0.1249
     31 H14         3.8698   -3.1064   -7.5280 H         1 <0>         0.1270
     32 H15         5.9800   -1.9826   -6.9487 H         1 <0>         0.1290
     33 H16         6.1663   -0.6737   -4.8825 H         1 <0>         0.1233
     34 H17         2.5384    0.4903   -0.7482 H         1 <0>         0.1222
@<TRIPOS>BOND
     1    1    2 1
     2    1   19 1
     3    1   20 1
     4    1   21 1
     5    2    3 1
     6    2    4 1
     7    2    5 1
     8    3   22 1
     9    3   23 1
    10    3   24 1
    11    4   25 1
    12    4   26 1
    13    4   27 1
    14    5   18 ar
    15    5    6 ar
    16    6    7 ar
    17    6   28 1
    18    7    8 ar
    19    7   29 1
    20    8   17 ar
    21    8    9 1
    22    9   14 ar
    23    9   10 ar
    24   10   11 ar
    25   10   30 1
    26   11   12 ar
    27   11   31 1
    28   12   13 ar
    29   12   32 1
    30   13   14 ar
    31   13   33 1
    32   14   15 1
    33   15   16 1
    34   15   17 1
    35   17   18 ar
    36   18   34 1
@<TRIPOS>MOLECULE
CHEMBL1173704
   25    27     0     0     0
SMALL
USER_CHARGES

@<TRIPOS>ATOM
      1 C1         -0.0166    1.3739    0.0096 C.ar      1 <0>        -0.1493
      2 C2          1.1715    2.0887    0.0021 C.ar      1 <0>        -0.0758
      3 C3          2.3835    1.4330   -0.0130 C.ar      1 <0>        -0.1439
      4 C4          2.4230    0.0419   -0.0209 C.ar      1 <0>         0.1472
      5 C5          1.2201   -0.6797   -0.0133 C.ar      1 <0>        -0.1133
      6 C6          0.0021   -0.0041    0.0020 C.ar      1 <0>        -0.0551
      7 C7          1.5888   -2.1073   -0.0246 C.ar      1 <0>        -0.0741
      8 C8          0.8500   -3.2882   -0.0239 C.ar      1 <0>        -0.0596
      9 C9          1.5007   -4.5030   -0.0368 C.ar      1 <0>        -0.1077
     10 C10         2.8863   -4.5531   -0.0498 C.ar      1 <0>        -0.1485
     11 C11         3.6294   -3.3925   -0.0501 C.ar      1 <0>        -0.0884
     12 C12         2.9905   -2.1562   -0.0382 C.ar      1 <0>         0.1380
     13 N1          3.4724   -0.8594   -0.0358 N.pl3     1 <0>        -0.6130
     14 H1          4.4115   -0.6169   -0.0437 H         1 <0>         0.4208
     15 C13         3.5855   -5.8880   -0.0633 C.3       1 <0>         0.5111
     16 F1          2.6336   -6.9131   -0.0599 F         1 <0>        -0.1738
     17 F2          4.3755   -5.9890   -1.2134 F         1 <0>        -0.1756
     18 F3          4.3966   -6.0010    1.0710 F         1 <0>        -0.1757
     19 H2         -0.9602    1.8990    0.0259 H         1 <0>         0.1302
     20 H3          1.1469    3.1684    0.0078 H         1 <0>         0.1321
     21 H4          3.3032    1.9991   -0.0191 H         1 <0>         0.1268
     22 H5         -0.9248   -0.5584    0.0083 H         1 <0>         0.1286
     23 H6         -0.2293   -3.2520   -0.0131 H         1 <0>         0.1392
     24 H7          0.9292   -5.4194   -0.0363 H         1 <0>         0.1439
     25 H8          4.7082   -3.4425   -0.0600 H         1 <0>         0.1361
@<TRIPOS>BOND
     1    1    6 ar
     2    1    2 ar
     3    1   19 1
     4    2    3 ar
     5    2   20 1
     6    3    4 ar
     7    3   21 1
     8    4   13 1
     9    4    5 ar
    10    5    6 ar
    11    5    7 1
    12    6   22 1
    13    7   12 ar
    14    7    8 ar
    15    8    9 ar
    16    8   23 1
    17    9   10 ar
    18    9   24 1
    19   10   11 ar
    20   10   15 1
    21   11   12 ar
    22   11   25 1
    23   12   13 1
    24   13   14 1
    25   15   16 1
    26   15   17 1
    27   15   18 1
@<TRIPOS>MOLECULE
CHEMBL1078998
   48    51     0     0     0
SMALL
USER_CHARGES

@<TRIPOS>ATOM
      1 C1         -0.0187    1.5258    0.0104 C.3       1 <0>        -0.1388
      2 C2          0.0021   -0.0041    0.0020 C.3       1 <0>        -0.0224
      3 C3          0.7421   -0.5109    1.2415 C.3       1 <0>        -0.1387
      4 C4         -1.4333   -0.5336    0.0129 C.3       1 <0>        -0.1444
      5 C5          0.7074   -0.4901   -1.2379 C.ar      1 <0>        -0.1250
      6 C6          0.0345   -1.2846   -2.1482 C.ar      1 <0>        -0.0665
      7 C7          0.6791   -1.7274   -3.2853 C.ar      1 <0>        -0.1905
      8 C8          2.0055   -1.3763   -3.5154 C.ar      1 <0>         0.2314
      9 C9          2.6792   -0.5835   -2.6000 C.ar      1 <0>        -0.1539
     10 C10         2.0233   -0.1364   -1.4658 C.ar      1 <0>        -0.0465
     11 C11         4.1217   -0.1945   -2.8092 C.3       1 <0>         0.1530
     12 H1          4.2714    0.8341   -2.4812 H         1 <0>         0.0706
     13 C12         4.4848   -0.3147   -4.2872 C.3       1 <0>        -0.1240
     14 H2          3.9338    0.4359   -4.8539 H         1 <0>         0.0881
     15 C13         5.9820   -0.0985   -4.4910 C.3       1 <0>        -0.1172
     16 C14         6.7661   -1.0658   -3.5994 C.3       1 <0>        -0.1603
     17 C15         6.3365   -0.8532   -2.1445 C.3       1 <0>         0.0622
     18 O1          4.9473   -1.0664   -2.0332 O.3       1 <0>        -0.3724
     19 C16         4.0984   -1.7086   -4.7893 C.3       1 <0>         0.2521
     20 H3          4.5834   -2.4693   -4.1777 H         1 <0>         0.0955
     21 N1          2.6368   -1.8314   -4.6783 N.pl3     1 <0>        -0.7473
     22 C17         4.5164   -1.8673   -6.2285 C.2       1 <0>        -0.1543
     23 C18         5.6031   -2.4979   -6.7371 C.2       1 <0>        -0.1427
     24 C19         5.7861   -2.5184   -8.1070 C.2       1 <0>        -0.1573
     25 C20         4.8734   -1.9074   -8.9013 C.2       1 <0>        -0.1706
     26 S1          3.7047   -1.2805   -7.7063 S.3       1 <0>         0.0502
     27 H4          1.0039    1.9031    0.0027 H         1 <0>         0.0549
     28 H5         -0.5459    1.8868   -0.8726 H         1 <0>         0.0554
     29 H6         -0.5289    1.8773    0.9072 H         1 <0>         0.0564
     30 H7          0.2319   -0.1594    2.1383 H         1 <0>         0.0558
     31 H8          0.7568   -1.6008    1.2356 H         1 <0>         0.0558
     32 H9          1.7647   -0.1336    1.2338 H         1 <0>         0.0557
     33 H10        -1.9605   -0.1726   -0.8702 H         1 <0>         0.0577
     34 H11        -1.4185   -1.6235    0.0069 H         1 <0>         0.0579
     35 H12        -1.9435   -0.1821    0.9097 H         1 <0>         0.0569
     36 H13        -0.9947   -1.5587   -1.9691 H         1 <0>         0.1268
     37 H14         0.1535   -2.3467   -3.9971 H         1 <0>         0.1209
     38 H15         2.5432    0.4885   -0.7549 H         1 <0>         0.1200
     39 H16         6.2361   -0.2803   -5.5353 H         1 <0>         0.0751
     40 H17         6.2397    0.9275   -4.2283 H         1 <0>         0.0694
     41 H18         6.5523   -2.0923   -3.8973 H         1 <0>         0.0712
     42 H19         7.8337   -0.8694   -3.6976 H         1 <0>         0.0762
     43 H20         6.8711   -1.5518   -1.5008 H         1 <0>         0.0966
     44 H21         6.5641    0.1692   -1.8429 H         1 <0>         0.0471
     45 H22         2.1190   -2.2240   -5.3985 H         1 <0>         0.4029
     46 H23         6.3156   -2.9768   -6.0818 H         1 <0>         0.1339
     47 H24         6.6437   -3.0136   -8.5381 H         1 <0>         0.1359
     48 H25         4.8557   -1.8247   -9.9780 H         1 <0>         0.1869
@<TRIPOS>BOND
     1    1    2 1
     2    1   27 1
     3    1   28 1
     4    1   29 1
     5    2    3 1
     6    2    4 1
     7    2    5 1
     8    3   30 1
     9    3   31 1
    10    3   32 1
    11    4   33 1
    12    4   34 1
    13    4   35 1
    14    5   10 ar
    15    5    6 ar
    16    6    7 ar
    17    6   36 1
    18    7    8 ar
    19    7   37 1
    20    8   21 1
    21    8    9 ar
    22    9   10 ar
    23    9   11 1
    24   10   38 1
    25   11   12 1
    26   11   18 1
    27   11   13 1
    28   13   14 1
    29   13   15 1
    30   13   19 1
    31   15   16 1
    32   15   39 1
    33   15   40 1
    34   16   17 1
    35   16   41 1
    36   16   42 1
    37   17   18 1
    38   17   43 1
    39   17   44 1
    40   19   20 1
    41   19   21 1
    42   19   22 1
    43   21   45 1
    44   22   26 1
    45   22   23 2
    46   23   24 1
    47   23   46 1
    48   24   25 2
    49   24   47 1
    50   25   26 1
    51   25   48 1
@<TRIPOS>MOLECULE
CHEMBL249882
   65    68     0     0     0
SMALL
USER_CHARGES

@<TRIPOS>ATOM
      1 C1         -0.3884    1.6339    0.5397 C.3       1 <0>        -0.1964
      2 C2         -0.2128    0.1470    0.3684 C.2       1 <0>         0.4340
      3 O1          0.9001   -0.3397    0.3902 O.2       1 <0>        -0.4522
      4 C3         -1.3383   -0.6781    0.1831 C.2       1 <0>        -0.0810
      5 N1         -2.5792   -0.2943    0.2211 N.2       1 <0>        -0.1233
      6 N2         -3.4595   -1.1993    0.0268 N.pl3     1 <0>        -0.3913
      7 C4         -2.8171   -2.5037   -0.2006 C.3       1 <0>         0.0633
      8 C5         -1.3123   -2.1677   -0.1019 C.3       1 <0>         0.0104
      9 C6         -0.6586   -2.9330    1.0505 C.3       1 <0>        -0.1012
     10 C7         -1.3673   -2.5845    2.3610 C.3       1 <0>        -0.1543
     11 C8         -0.7503   -3.3919    3.5048 C.3       1 <0>        -0.0081
     12 N3         -1.4307   -3.0574    4.7630 N.4       1 <0>        -0.3839
     13 C9         -1.1832   -1.6478    5.0914 C.3       1 <0>        -0.0251
     14 C10        -1.9846   -1.2671    6.3406 C.3       1 <0>         0.0893
     15 N4         -1.6453   -2.2101    7.4176 N.am      1 <0>        -0.6377
     16 C11        -1.7085   -3.6501    7.1236 C.3       1 <0>         0.0854
     17 C12        -0.9201   -3.9183    5.8374 C.3       1 <0>        -0.0219
     18 C13        -1.2863   -1.7672    8.6389 C.2       1 <0>         0.5209
     19 O2         -1.2395   -0.5761    8.8624 O.2       1 <0>        -0.5123
     20 C14        -0.9431   -2.7521    9.7266 C.3       1 <0>        -0.1797
     21 C15        -0.6083   -2.4543   -1.4032 C.ar      1 <0>        -0.0763
     22 C16         0.4474   -3.3461   -1.4361 C.ar      1 <0>        -0.1044
     23 C17         1.0932   -3.6089   -2.6297 C.ar      1 <0>        -0.1138
     24 C18         0.6830   -2.9802   -3.7905 C.ar      1 <0>        -0.1098
     25 C19        -0.3733   -2.0891   -3.7578 C.ar      1 <0>        -0.1122
     26 C20        -1.0218   -1.8295   -2.5649 C.ar      1 <0>        -0.1107
     27 C21        -4.8387   -0.9814    0.0302 C.ar      1 <0>         0.1551
     28 C22        -5.6069   -1.3655   -1.0617 C.ar      1 <0>        -0.1322
     29 C23        -6.9727   -1.1481   -1.0548 C.ar      1 <0>         0.1191
     30 C24        -7.5747   -0.5482    0.0391 C.ar      1 <0>        -0.1160
     31 C25        -6.8131   -0.1648    1.1274 C.ar      1 <0>        -0.1057
     32 C26        -5.4478   -0.3843    1.1298 C.ar      1 <0>         0.0945
     33 F1         -4.7053   -0.0147    2.1963 F         1 <0>        -0.1270
     34 F2         -7.7206   -1.5208   -2.1164 F         1 <0>        -0.1208
     35 H1          0.5871    2.1024    0.6697 H         1 <0>         0.0870
     36 H2         -0.8747    2.0465   -0.3443 H         1 <0>         0.0945
     37 H3         -1.0047    1.8282    1.4174 H         1 <0>         0.0922
     38 H4         -3.1081   -3.2169    0.5706 H         1 <0>         0.0961
     39 H5         -3.0596   -2.8857   -1.1923 H         1 <0>         0.0999
     40 H6         -0.7396   -4.0044    0.8674 H         1 <0>         0.0872
     41 H7          0.3930   -2.6549    1.1211 H         1 <0>         0.1018
     42 H8         -1.2521   -1.5199    2.5644 H         1 <0>         0.0897
     43 H9         -2.4269   -2.8257    2.2763 H         1 <0>         0.0847
     44 H10        -0.8655   -4.4566    3.3014 H         1 <0>         0.1357
     45 H11         0.3093   -3.1508    3.5895 H         1 <0>         0.1345
     46 H12        -0.1202   -1.5003    5.2825 H         1 <0>         0.1357
     47 H13        -1.4928   -1.0201    4.2557 H         1 <0>         0.1431
     48 H14        -1.7263   -0.2533    6.6466 H         1 <0>         0.1362
     49 H15        -3.0511   -1.3269    6.1239 H         1 <0>         0.0940
     50 H16        -1.2677   -4.2118    7.9472 H         1 <0>         0.1334
     51 H17        -2.7472   -3.9506    6.9859 H         1 <0>         0.0977
     52 H18        -1.0359   -4.9637    5.5514 H         1 <0>         0.1457
     53 H19         0.1348   -3.7021    6.0060 H         1 <0>         0.1355
     54 H20        -0.0985   -3.3639    9.4096 H         1 <0>         0.0937
     55 H21        -0.6794   -2.2119   10.6359 H         1 <0>         0.1044
     56 H22        -1.8031   -3.3929    9.9212 H         1 <0>         0.0960
     57 H23         0.7679   -3.8372   -0.5292 H         1 <0>         0.1237
     58 H24         1.9185   -4.3051   -2.6554 H         1 <0>         0.1267
     59 H25         1.1880   -3.1850   -4.7230 H         1 <0>         0.1269
     60 H26        -0.6936   -1.5977   -4.6646 H         1 <0>         0.1258
     61 H27        -1.8495   -1.1362   -2.5399 H         1 <0>         0.1127
     62 H28        -5.1381   -1.8329   -1.9150 H         1 <0>         0.1524
     63 H29        -8.6414   -0.3793    0.0416 H         1 <0>         0.1581
     64 H30        -7.2857    0.3026    1.9786 H         1 <0>         0.1584
     65 H31        -2.4230   -3.2063    4.6572 H         1 <0>         0.4221
@<TRIPOS>BOND
     1    1    2 1
     2    1   35 1
     3    1   36 1
     4    1   37 1
     5    2    3 2
     6    2    4 1
     7    4    8 1
     8    4    5 2
     9    5    6 1
    10    6    7 1
    11    6   27 1
    12    7    8 1
    13    7   38 1
    14    7   39 1
    15    8    9 1
    16    8   21 1
    17    9   10 1
    18    9   40 1
    19    9   41 1
    20   10   11 1
    21   10   42 1
    22   10   43 1
    23   11   12 1
    24   11   44 1
    25   11   45 1
    26   12   17 1
    27   12   13 1
    28   12   65 1
    29   13   14 1
    30   13   46 1
    31   13   47 1
    32   14   15 1
    33   14   48 1
    34   14   49 1
    35   15   16 1
    36   15   18 am
    37   16   17 1
    38   16   50 1
    39   16   51 1
    40   17   52 1
    41   17   53 1
    42   18   19 2
    43   18   20 1
    44   20   54 1
    45   20   55 1
    46   20   56 1
    47   21   26 ar
    48   21   22 ar
    49   22   23 ar
    50   22   57 1
    51   23   24 ar
    52   23   58 1
    53   24   25 ar
    54   24   59 1
    55   25   26 ar
    56   25   60 1
    57   26   61 1
    58   27   32 ar
    59   27   28 ar
    60   28   29 ar
    61   28   62 1
    62   29   30 ar
    63   29   34 1
    64   30   31 ar
    65   30   63 1
    66   31   32 ar
    67   31   64 1
    68   32   33 1
@<TRIPOS>MOLECULE
CHEMBL249882__1
   64    67     0     0     0
SMALL
USER_CHARGES

@<TRIPOS>ATOM
      1 C1         -0.4807    2.2463    0.7271 C.3       1 <0>        -0.1938
      2 C2         -0.2737    0.7823    0.4356 C.2       1 <0>         0.4352
      3 O1          0.8489    0.3185    0.4218 O.2       1 <0>        -0.4535
      4 C3         -1.3815   -0.0478    0.1792 C.2       1 <0>        -0.0684
      5 N1         -2.6302    0.3053    0.2459 N.2       1 <0>        -0.1298
      6 N2         -3.4911   -0.5985   -0.0255 N.pl3     1 <0>        -0.3930
      7 C4         -2.8211   -1.8656   -0.3595 C.3       1 <0>         0.0673
      8 C5         -1.3238   -1.5075   -0.2292 C.3       1 <0>         0.0063
      9 C6         -0.6550   -2.3525    0.8569 C.3       1 <0>        -0.1042
     10 C7         -1.3751   -2.1337    2.1890 C.3       1 <0>        -0.1155
     11 C8         -0.7519   -3.0321    3.2592 C.3       1 <0>         0.0583
     12 N3         -1.4433   -2.8220    4.5382 N.3       1 <0>        -0.5368
     13 C9         -1.2184   -1.4601    5.0407 C.3       1 <0>         0.0401
     14 C10        -2.0964   -1.2228    6.2740 C.3       1 <0>         0.1170
     15 N4         -1.8360   -2.2953    7.2462 N.am      1 <0>        -0.6166
     16 C11        -1.9078   -3.6887    6.7810 C.3       1 <0>         0.1064
     17 C12        -1.0372   -3.8289    5.5277 C.3       1 <0>         0.0393
     18 C13        -1.5400   -2.0088    8.5295 C.2       1 <0>         0.5125
     19 O2         -1.5741   -0.8603    8.9178 O.2       1 <0>        -0.5460
     20 C14        -1.1665   -3.1155    9.4818 C.3       1 <0>        -0.1797
     21 C15        -0.6129   -1.6695   -1.5481 C.ar      1 <0>        -0.0658
     22 C16         0.4719   -2.5204   -1.6487 C.ar      1 <0>        -0.1014
     23 C17         1.1240   -2.6690   -2.8585 C.ar      1 <0>        -0.1161
     24 C18         0.6911   -1.9669   -3.9678 C.ar      1 <0>        -0.1170
     25 C19        -0.3942   -1.1166   -3.8674 C.ar      1 <0>        -0.1168
     26 C20        -1.0490   -0.9713   -2.6587 C.ar      1 <0>        -0.1126
     27 C21        -4.8746   -0.4107   -0.0074 C.ar      1 <0>         0.1628
     28 C22        -5.6336   -0.7181   -1.1295 C.ar      1 <0>        -0.1334
     29 C23        -7.0037   -0.5308   -1.1080 C.ar      1 <0>         0.1110
     30 C24        -7.6191   -0.0372    0.0307 C.ar      1 <0>        -0.1207
     31 C25        -6.8666    0.2698    1.1492 C.ar      1 <0>        -0.1087
     32 C26        -5.4969    0.0796    1.1367 C.ar      1 <0>         0.1005
     33 F1         -4.7632    0.3742    2.2322 F         1 <0>        -0.1185
     34 F2         -7.7427   -0.8291   -2.1989 F         1 <0>        -0.1264
     35 H1          0.4846    2.7226    0.8987 H         1 <0>         0.0837
     36 H2         -0.9736    2.7197   -0.1221 H         1 <0>         0.0911
     37 H3         -1.1028    2.3555    1.6154 H         1 <0>         0.0931
     38 H4         -3.0976   -2.6467    0.3487 H         1 <0>         0.1006
     39 H5         -3.0547   -2.1683   -1.3802 H         1 <0>         0.0932
     40 H6         -0.7100   -3.4061    0.5829 H         1 <0>         0.0749
     41 H7          0.3895   -2.0568    0.9556 H         1 <0>         0.0882
     42 H8         -1.2765   -1.0902    2.4881 H         1 <0>         0.0646
     43 H9         -2.4306   -2.3813    2.0764 H         1 <0>         0.0686
     44 H10        -0.8504   -4.0756    2.9600 H         1 <0>         0.0772
     45 H11         0.3036   -2.7846    3.3718 H         1 <0>         0.0372
     46 H12        -0.1695   -1.3413    5.3125 H         1 <0>         0.0389
     47 H13        -1.4775   -0.7390    4.2655 H         1 <0>         0.0895
     48 H14        -1.8506   -0.2582    6.7183 H         1 <0>         0.0949
     49 H15        -3.1470   -1.2385    5.9840 H         1 <0>         0.0745
     50 H16        -1.5374   -4.3545    7.5605 H         1 <0>         0.0969
     51 H17        -2.9403   -3.9415    6.5398 H         1 <0>         0.0792
     52 H18        -1.1650   -4.8258    5.1058 H         1 <0>         0.0892
     53 H19         0.0091   -3.6771    5.7928 H         1 <0>         0.0402
     54 H20        -1.1036   -4.0576    8.9372 H         1 <0>         0.0821
     55 H21        -0.2010   -2.8933    9.9363 H         1 <0>         0.0954
     56 H22        -1.9249   -3.1959   10.2606 H         1 <0>         0.0963
     57 H23         0.8101   -3.0689   -0.7820 H         1 <0>         0.1270
     58 H24         1.9719   -3.3332   -2.9369 H         1 <0>         0.1239
     59 H25         1.2010   -2.0824   -4.9128 H         1 <0>         0.1226
     60 H26        -0.7323   -0.5678   -4.7340 H         1 <0>         0.1219
     61 H27        -1.8992   -0.3099   -2.5811 H         1 <0>         0.1125
     62 H28        -5.1544   -1.1026   -2.0177 H         1 <0>         0.1502
     63 H29        -8.6891    0.1085    0.0446 H         1 <0>         0.1539
     64 H30        -7.3497    0.6544    2.0353 H         1 <0>         0.1566
@<TRIPOS>BOND
     1    1    2 1
     2    1   35 1
     3    1   36 1
     4    1   37 1
     5    2    3 2
     6    2    4 1
     7    4    8 1
     8    4    5 2
     9    5    6 1
    10    6    7 1
    11    6   27 1
    12    7    8 1
    13    7   38 1
    14    7   39 1
    15    8    9 1
    16    8   21 1
    17    9   10 1
    18    9   40 1
    19    9   41 1
    20   10   11 1
    21   10   42 1
    22   10   43 1
    23   11   12 1
    24   11   44 1
    25   11   45 1
    26   12   17 1
    27   12   13 1
    28   13   14 1
    29   13   46 1
    30   13   47 1
    31   14   15 1
    32   14   48 1
    33   14   49 1
    34   15   16 1
    35   15   18 am
    36   16   17 1
    37   16   50 1
    38   16   51 1
    39   17   52 1
    40   17   53 1
    41   18   19 2
    42   18   20 1
    43   20   54 1
    44   20   55 1
    45   20   56 1
    46   21   26 ar
    47   21   22 ar
    48   22   23 ar
    49   22   57 1
    50   23   24 ar
    51   23   58 1
    52   24   25 ar
    53   24   59 1
    54   25   26 ar
    55   25   60 1
    56   26   61 1
    57   27   32 ar
    58   27   28 ar
    59   28   29 ar
    60   28   62 1
    61   29   30 ar
    62   29   34 1
    63   30   31 ar
    64   30   63 1
    65   31   32 ar
    66   31   64 1
    67   32   33 1
@<TRIPOS>MOLECULE
CHEMBL561696
   51    54     0     0     0
SMALL
USER_CHARGES

@<TRIPOS>ATOM
      1 C1         -1.2477   -1.3138   -0.1625 C.3       1 <0>        -0.1436
      2 S1         -0.0852    0.0606    0.0615 S.3       1 <0>        -0.1218
      3 C2          0.8120   -0.3725    1.5148 C.ar      1 <0>        -0.1026
      4 C3          0.5277   -1.5593    2.1790 C.ar      1 <0>        -0.1060
      5 C4          1.2311   -1.8985    3.3174 C.ar      1 <0>        -0.1075
      6 C5          2.2225   -1.0534    3.7990 C.ar      1 <0>         0.1668
      7 C6          2.5068    0.1329    3.1353 C.ar      1 <0>        -0.1335
      8 C7          1.8077    0.4700    1.9936 C.ar      1 <0>        -0.0734
      9 N1          2.9354   -1.3975    4.9547 N.pl3     1 <0>        -0.6401
     10 C8          3.0648   -2.7224    5.3165 C.2       1 <0>         0.5380
     11 N2          2.6619   -3.7409    4.5986 N.2       1 <0>        -0.5137
     12 C9          2.9461   -4.8986    5.2524 C.ar      1 <0>         0.0694
     13 C10         2.7401   -6.2433    4.9500 C.ar      1 <0>        -0.0041
     14 C11         3.1560   -7.2204    5.8505 C.ar      1 <0>        -0.1424
     15 C12         3.7763   -6.8526    7.0512 C.ar      1 <0>        -0.0803
     16 C13         3.9789   -5.5358    7.3501 C.ar      1 <0>        -0.1041
     17 C14         3.5711   -4.5476    6.4628 C.ar      1 <0>         0.0696
     18 N3          3.6375   -3.1675    6.4745 N.pl3     1 <0>        -0.5037
     19 C15         4.2130   -2.3351    7.5339 C.3       1 <0>         0.1356
     20 C16         3.1788   -2.0982    8.6041 C.ar      1 <0>        -0.0673
     21 C17         1.8863   -2.5571    8.4302 C.ar      1 <0>        -0.1040
     22 C18         0.9378   -2.3398    9.4117 C.ar      1 <0>        -0.0777
     23 C19         1.2817   -1.6639   10.5678 C.ar      1 <0>        -0.1125
     24 C20         2.5740   -1.2059   10.7421 C.ar      1 <0>        -0.0658
     25 C21         3.5239   -1.4270    9.7621 C.ar      1 <0>        -0.1745
     26 C22         4.9343   -0.9323    9.9544 C.3       1 <0>         0.5066
     27 F1          5.0657   -0.3843   11.2349 F         1 <0>        -0.1706
     28 F2          5.8267   -2.0000    9.8103 F         1 <0>        -0.1751
     29 F3          5.2198    0.0466    8.9966 F         1 <0>        -0.1755
     30 C23         2.9422   -8.6478    5.5391 C.2       1 <0>         0.5678
     31 O1          2.4036   -8.9687    4.4975 O.2       1 <0>        -0.5381
     32 N4          3.3441   -9.5950    6.4096 N.am      1 <0>        -0.8512
     33 H1         -1.8941   -1.3891    0.7120 H         1 <0>         0.0840
     34 H2         -1.8556   -1.1347   -1.0493 H         1 <0>         0.1094
     35 H3         -0.6920   -2.2435   -0.2847 H         1 <0>         0.0851
     36 H4         -0.2436   -2.2161    1.8050 H         1 <0>         0.1269
     37 H5          1.0103   -2.8210    3.8338 H         1 <0>         0.1520
     38 H6          3.2775    0.7900    3.5102 H         1 <0>         0.1302
     39 H7          2.0319    1.3904    1.4750 H         1 <0>         0.1328
     40 H8          3.3382   -0.7042    5.5006 H         1 <0>         0.4185
     41 H9          2.2611   -6.5255    4.0241 H         1 <0>         0.1457
     42 H10         4.0961   -7.6156    7.7454 H         1 <0>         0.1335
     43 H11         4.4574   -5.2617    8.2787 H         1 <0>         0.1276
     44 H12         5.0746   -2.8430    7.9673 H         1 <0>         0.1204
     45 H13         4.5275   -1.3794    7.1146 H         1 <0>         0.1098
     46 H14         1.6177   -3.0851    7.5271 H         1 <0>         0.1311
     47 H15        -0.0720   -2.6977    9.2755 H         1 <0>         0.1366
     48 H16         0.5404   -1.4935   11.3345 H         1 <0>         0.1402
     49 H17         2.8425   -0.6776   11.6450 H         1 <0>         0.1442
     50 H18         3.7739   -9.3390    7.2407 H         1 <0>         0.4007
     51 H19         3.2037  -10.5328    6.2050 H         1 <0>         0.4064
@<TRIPOS>BOND
     1    1    2 1
     2    1   33 1
     3    1   34 1
     4    1   35 1
     5    2    3 1
     6    3    8 ar
     7    3    4 ar
     8    4    5 ar
     9    4   36 1
    10    5    6 ar
    11    5   37 1
    12    6    7 ar
    13    6    9 1
    14    7    8 ar
    15    7   38 1
    16    8   39 1
    17    9   10 1
    18    9   40 1
    19   10   18 1
    20   10   11 2
    21   11   12 1
    22   12   17 ar
    23   12   13 ar
    24   13   14 ar
    25   13   41 1
    26   14   15 ar
    27   14   30 1
    28   15   16 ar
    29   15   42 1
    30   16   17 ar
    31   16   43 1
    32   17   18 1
    33   18   19 1
    34   19   20 1
    35   19   44 1
    36   19   45 1
    37   20   25 ar
    38   20   21 ar
    39   21   22 ar
    40   21   46 1
    41   22   23 ar
    42   22   47 1
    43   23   24 ar
    44   23   48 1
    45   24   25 ar
    46   24   49 1
    47   25   26 1
    48   26   27 1
    49   26   28 1
    50   26   29 1
    51   30   31 2
    52   30   32 am
    53   32   50 1
    54   32   51 1
@<TRIPOS>MOLECULE
CHEMBL213184
   67    71     0     0     0
SMALL
USER_CHARGES

@<TRIPOS>ATOM
      1 C1         -1.0785    1.5541    2.2648 C.3       1 <0>        -0.1299
      2 C2         -0.8928    0.1032    1.9020 C.ar      1 <0>        -0.0400
      3 C3         -0.9245   -0.2841    0.5741 C.ar      1 <0>        -0.1250
      4 C4         -0.7552   -1.6106    0.2351 C.ar      1 <0>        -0.0381
      5 C5         -0.5516   -2.5628    1.2352 C.ar      1 <0>        -0.1484
      6 C6         -0.5208   -2.1653    2.5728 C.ar      1 <0>        -0.1365
      7 C7         -0.6858   -0.8347    2.8978 C.ar      1 <0>        -0.1625
      8 C8         -0.3700   -3.9862    0.8793 C.2       1 <0>         0.5690
      9 O1         -0.7723   -4.4014   -0.1900 O.2       1 <0>        -0.5001
     10 N1          0.2418   -4.8234    1.7403 N.am      1 <0>        -0.6063
     11 C9          0.2599   -4.5162    3.1726 C.3       1 <0>         0.0929
     12 C10         1.2930   -3.4215    3.4464 C.3       1 <0>        -0.2109
     13 C11         1.1485   -2.9332    4.8892 C.3       1 <0>        -0.0151
     14 N2          2.0578   -1.8020    5.1167 N.4       1 <0>        -0.6366
     15 C12         0.8886   -6.0405    1.2439 C.3       1 <0>         0.2263
     16 C13         0.2703   -7.2442    1.9072 C.2       1 <0>         0.3649
     17 N3          0.4066   -7.3864    3.1826 N.2       1 <0>        -0.2986
     18 N4         -0.1447   -8.4834    3.8563 N.pl3     1 <0>        -0.2702
     19 C14        -0.8477   -9.4277    3.1301 C.2       1 <0>        -0.0935
     20 C15        -1.2838  -10.3951    4.0083 C.2       1 <0>        -0.0645
     21 C16        -0.8342  -10.0224    5.2773 C.2       1 <0>        -0.1666
     22 C17        -0.1456   -8.8569    5.1511 C.2       1 <0>         0.1320
     23 Cl1         0.6113   -7.9888    6.4500 Cl        1 <0>        -0.0036
     24 C18        -0.9843   -9.2368    1.6865 C.2       1 <0>         0.5855
     25 O2         -1.5943  -10.0404    1.0042 O.2       1 <0>        -0.4715
     26 N5         -0.4196   -8.1418    1.1310 N.am      1 <0>        -0.5455
     27 C19        -0.5397   -7.9141   -0.3112 C.3       1 <0>         0.1297
     28 C20         0.5522   -8.6630   -1.0307 C.ar      1 <0>        -0.1281
     29 C21         1.7012   -8.0019   -1.4227 C.ar      1 <0>        -0.1068
     30 C22         2.7029   -8.6889   -2.0827 C.ar      1 <0>        -0.1205
     31 C23         2.5558  -10.0371   -2.3503 C.ar      1 <0>        -0.1023
     32 C24         1.4072  -10.6984   -1.9575 C.ar      1 <0>        -0.1171
     33 C25         0.4074  -10.0123   -1.2937 C.ar      1 <0>        -0.0901
     34 C26         2.3833   -5.9918    1.5669 C.3       1 <0>        -0.1737
     35 C27         2.9451   -7.0847    2.4783 C.3       1 <0>        -0.1704
     36 C28         3.2686   -7.0946    0.9829 C.3       1 <0>        -0.1786
     37 H1         -0.1088    2.0516    2.2806 H         1 <0>         0.0796
     38 H2         -1.7211    2.0339    1.5266 H         1 <0>         0.0778
     39 H3         -1.5399    1.6261    3.2497 H         1 <0>         0.0728
     40 H4         -1.0824    0.4536   -0.1987 H         1 <0>         0.1377
     41 H5         -0.7805   -1.9117   -0.8017 H         1 <0>         0.1412
     42 H6         -0.3637   -2.8971    3.3514 H         1 <0>         0.1657
     43 H7         -0.6578   -0.5252    3.9321 H         1 <0>         0.1243
     44 H8         -0.7264   -4.1708    3.4826 H         1 <0>         0.0971
     45 H9          0.5235   -5.4131    3.7332 H         1 <0>         0.1280
     46 H10         2.2956   -3.8225    3.2973 H         1 <0>         0.1032
     47 H11         1.1296   -2.5884    2.7628 H         1 <0>         0.1244
     48 H12         0.1210   -2.6141    5.0636 H         1 <0>         0.1376
     49 H13         1.3985   -3.7437    5.5738 H         1 <0>         0.1450
     50 H14         2.9995   -2.0741    4.8774 H         1 <0>         0.4379
     51 H15         1.7761   -1.0230    4.5407 H         1 <0>         0.4344
     52 H16         0.7521   -6.1102    0.1647 H         1 <0>         0.1412
     53 H17        -1.8623  -11.2734    3.7628 H         1 <0>         0.1684
     54 H18        -1.0036  -10.5642    6.1961 H         1 <0>         0.1738
     55 H19        -1.5112   -8.2688   -0.6553 H         1 <0>         0.1151
     56 H20        -0.4475   -6.8482   -0.5196 H         1 <0>         0.1140
     57 H21         1.8162   -6.9486   -1.2136 H         1 <0>         0.1207
     58 H22         3.6003   -8.1722   -2.3896 H         1 <0>         0.1279
     59 H23         3.3380  -10.5737   -2.8666 H         1 <0>         0.1279
     60 H24         1.2921  -11.7516   -2.1668 H         1 <0>         0.1284
     61 H25        -0.4884  -10.5298   -0.9835 H         1 <0>         0.1342
     62 H26         2.8134   -4.9939    1.6530 H         1 <0>         0.1248
     63 H27         3.7449   -6.8060    3.1644 H         1 <0>         0.1007
     64 H28         2.2498   -7.8385    2.8478 H         1 <0>         0.1064
     65 H29         2.7861   -7.8548    0.3686 H         1 <0>         0.1107
     66 H30         4.2812   -6.8223    0.6852 H         1 <0>         0.1082
     67 H31         2.0223   -1.5321    6.0883 H         1 <0>         0.4416
@<TRIPOS>BOND
     1    1    2 1
     2    1   37 1
     3    1   38 1
     4    1   39 1
     5    2    7 ar
     6    2    3 ar
     7    3    4 ar
     8    3   40 1
     9    4    5 ar
    10    4   41 1
    11    5    6 ar
    12    5    8 1
    13    6    7 ar
    14    6   42 1
    15    7   43 1
    16    8    9 2
    17    8   10 am
    18   10   11 1
    19   10   15 1
    20   11   12 1
    21   11   44 1
    22   11   45 1
    23   12   13 1
    24   12   46 1
    25   12   47 1
    26   13   14 1
    27   13   48 1
    28   13   49 1
    29   14   50 1
    30   14   51 1
    31   14   67 1
    32   15   16 1
    33   15   34 1
    34   15   52 1
    35   16   26 1
    36   16   17 2
    37   17   18 1
    38   18   22 1
    39   18   19 1
    40   19   20 2
    41   19   24 1
    42   20   21 1
    43   20   53 1
    44   21   22 2
    45   21   54 1
    46   22   23 1
    47   24   25 2
    48   24   26 am
    49   26   27 1
    50   27   28 1
    51   27   55 1
    52   27   56 1
    53   28   33 ar
    54   28   29 ar
    55   29   30 ar
    56   29   57 1
    57   30   31 ar
    58   30   58 1
    59   31   32 ar
    60   31   59 1
    61   32   33 ar
    62   32   60 1
    63   33   61 1
    64   34   36 1
    65   34   35 1
    66   34   62 1
    67   35   36 1
    68   35   63 1
    69   35   64 1
    70   36   65 1
    71   36   66 1
@<TRIPOS>MOLECULE
CHEMBL213184__1
   67    71     0     0     0
SMALL
USER_CHARGES

@<TRIPOS>ATOM
      1 C1          1.2373    1.0358    4.0446 C.3       1 <0>        -0.1267
      2 C2          0.8069   -0.2928    3.4783 C.ar      1 <0>        -0.0499
      3 C3          1.4368   -0.7994    2.3554 C.ar      1 <0>        -0.1174
      4 C4          1.0477   -2.0150    1.8320 C.ar      1 <0>        -0.0530
      5 C5          0.0162   -2.7342    2.4377 C.ar      1 <0>        -0.1393
      6 C6         -0.6151   -2.2174    3.5703 C.ar      1 <0>        -0.1072
      7 C7         -0.2125   -1.0032    4.0870 C.ar      1 <0>        -0.1309
      8 C8         -0.4063   -4.0374    1.8819 C.2       1 <0>         0.5674
      9 O1         -0.4808   -4.1893    0.6782 O.2       1 <0>        -0.5083
     10 N1         -0.7089   -5.0569    2.7098 N.am      1 <0>        -0.5913
     11 C9         -0.8092   -4.8238    4.1526 C.3       1 <0>         0.0724
     12 C10        -2.2804   -4.6703    4.5434 C.3       1 <0>        -0.1908
     13 C11        -2.3770   -4.2474    6.0107 C.3       1 <0>        -0.0116
     14 N2         -3.7876   -4.2156    6.4193 N.4       1 <0>        -0.6368
     15 C12        -0.9375   -6.3982    2.1669 C.3       1 <0>         0.2263
     16 C13         0.0235   -7.3686    2.8039 C.2       1 <0>         0.3706
     17 N3          0.5260   -7.0758    3.9560 N.2       1 <0>        -0.3059
     18 N4          1.4244   -7.9366    4.5990 N.pl3     1 <0>        -0.2702
     19 C14         1.7733   -9.1220    3.9775 C.2       1 <0>        -0.0941
     20 C15         2.6580   -9.7839    4.7997 C.2       1 <0>        -0.0651
     21 C16         2.8397   -8.9814    5.9287 C.2       1 <0>        -0.1672
     22 C17         2.0766   -7.8666    5.7760 C.2       1 <0>         0.1308
     23 Cl1         1.9611   -6.5617    6.9152 Cl        1 <0>        -0.0041
     24 C18         1.1858   -9.4241    2.6726 C.2       1 <0>         0.5872
     25 O2          1.4616  -10.4552    2.0860 O.2       1 <0>        -0.4655
     26 N5          0.3245   -8.5303    2.1378 N.am      1 <0>        -0.5496
     27 C19        -0.2880   -8.8008    0.8348 C.3       1 <0>         0.1312
     28 C20         0.7774   -8.7999   -0.2310 C.ar      1 <0>        -0.1384
     29 C21         1.0361   -7.6472   -0.9487 C.ar      1 <0>        -0.0995
     30 C22         2.0134   -7.6464   -1.9263 C.ar      1 <0>        -0.1243
     31 C23         2.7323   -8.7982   -2.1859 C.ar      1 <0>        -0.1001
     32 C24         2.4742   -9.9507   -1.4676 C.ar      1 <0>        -0.1241
     33 C25         1.4999   -9.9503   -0.4870 C.ar      1 <0>        -0.0783
     34 C26        -2.3738   -6.8318    2.4668 C.3       1 <0>        -0.1721
     35 C27        -2.5765   -7.9295    3.5132 C.3       1 <0>        -0.1772
     36 C28        -2.7934   -8.2369    2.0301 C.3       1 <0>        -0.1893
     37 H1          2.0291    0.8792    4.7771 H         1 <0>         0.0797
     38 H2          1.6071    1.6712    3.2399 H         1 <0>         0.0752
     39 H3          0.3868    1.5180    4.5266 H         1 <0>         0.0717
     40 H4          2.2346   -0.2417    1.8875 H         1 <0>         0.1361
     41 H5          1.5399   -2.4092    0.9552 H         1 <0>         0.1348
     42 H6         -1.4139   -2.7689    4.0437 H         1 <0>         0.1294
     43 H7         -0.6971   -0.6043    4.9658 H         1 <0>         0.1285
     44 H8         -0.3773   -5.6693    4.6881 H         1 <0>         0.1328
     45 H9         -0.2675   -3.9142    4.4122 H         1 <0>         0.1115
     46 H10        -2.7460   -3.9109    3.9151 H         1 <0>         0.0958
     47 H11        -2.7943   -5.6215    4.4049 H         1 <0>         0.1035
     48 H12        -1.8350   -4.9614    6.6309 H         1 <0>         0.1406
     49 H13        -1.9410   -3.2559    6.1325 H         1 <0>         0.1377
     50 H14        -4.3056   -3.6170    5.7937 H         1 <0>         0.4358
     51 H15        -4.1691   -5.1491    6.3843 H         1 <0>         0.4361
     52 H16        -0.7795   -6.3855    1.0884 H         1 <0>         0.1437
     53 H17         3.1223  -10.7401    4.6084 H         1 <0>         0.1679
     54 H18         3.4740   -9.2068    6.7732 H         1 <0>         0.1734
     55 H19        -0.7775   -9.7744    0.8585 H         1 <0>         0.1105
     56 H20        -1.0249   -8.0290    0.6125 H         1 <0>         0.1150
     57 H21         0.4745   -6.7473   -0.7459 H         1 <0>         0.1207
     58 H22         2.2151   -6.7460   -2.4876 H         1 <0>         0.1262
     59 H23         3.4954   -8.7978   -2.9502 H         1 <0>         0.1266
     60 H24         3.0356  -10.8507   -1.6706 H         1 <0>         0.1273
     61 H25         1.3008  -10.8497    0.0768 H         1 <0>         0.1402
     62 H26        -3.1241   -6.0430    2.4126 H         1 <0>         0.1321
     63 H27        -1.6866   -8.3427    3.9879 H         1 <0>         0.0925
     64 H28        -3.4602   -7.8628    4.1478 H         1 <0>         0.1035
     65 H29        -3.8197   -8.3725    1.6891 H         1 <0>         0.1154
     66 H30        -2.0461   -8.8524    1.5292 H         1 <0>         0.1173
     67 H31        -3.8572   -3.8589    7.3606 H         1 <0>         0.4409
@<TRIPOS>BOND
     1    1    2 1
     2    1   37 1
     3    1   38 1
     4    1   39 1
     5    2    7 ar
     6    2    3 ar
     7    3    4 ar
     8    3   40 1
     9    4    5 ar
    10    4   41 1
    11    5    6 ar
    12    5    8 1
    13    6    7 ar
    14    6   42 1
    15    7   43 1
    16    8    9 2
    17    8   10 am
    18   10   11 1
    19   10   15 1
    20   11   12 1
    21   11   44 1
    22   11   45 1
    23   12   13 1
    24   12   46 1
    25   12   47 1
    26   13   14 1
    27   13   48 1
    28   13   49 1
    29   14   50 1
    30   14   51 1
    31   14   67 1
    32   15   16 1
    33   15   34 1
    34   15   52 1
    35   16   26 1
    36   16   17 2
    37   17   18 1
    38   18   22 1
    39   18   19 1
    40   19   20 2
    41   19   24 1
    42   20   21 1
    43   20   53 1
    44   21   22 2
    45   21   54 1
    46   22   23 1
    47   24   25 2
    48   24   26 am
    49   26   27 1
    50   27   28 1
    51   27   55 1
    52   27   56 1
    53   28   33 ar
    54   28   29 ar
    55   29   30 ar
    56   29   57 1
    57   30   31 ar
    58   30   58 1
    59   31   32 ar
    60   31   59 1
    61   32   33 ar
    62   32   60 1
    63   33   61 1
    64   34   36 1
    65   34   35 1
    66   34   62 1
    67   35   36 1
    68   35   63 1
    69   35   64 1
    70   36   65 1
    71   36   66 1
@<TRIPOS>MOLECULE
CHEMBL1084431
   71    75     0     0     0
SMALL
USER_CHARGES

@<TRIPOS>ATOM
      1 C1          0.7946    1.7944    0.9889 C.3       1 <0>        -0.1274
      2 C2          0.6227    0.3195    0.7311 C.ar      1 <0>        -0.0527
      3 C3          1.3363   -0.2897   -0.2856 C.ar      1 <0>        -0.1094
      4 C4          1.1836   -1.6394   -0.5268 C.ar      1 <0>        -0.0497
      5 C5          0.3068   -2.3905    0.2575 C.ar      1 <0>        -0.1370
      6 C6         -0.4101   -1.7697    1.2817 C.ar      1 <0>        -0.1219
      7 C7         -0.2438   -0.4204    1.5160 C.ar      1 <0>        -0.1300
      8 C8          0.1378   -3.8373    0.0044 C.2       1 <0>         0.5665
      9 O1          0.0001   -4.2432   -1.1331 O.2       1 <0>        -0.4790
     10 N1          0.1364   -4.7061    1.0347 N.am      1 <0>        -0.6058
     11 C9          0.1725   -4.2087    2.4123 C.3       1 <0>         0.0719
     12 C10        -1.2455   -4.1942    2.9866 C.3       1 <0>        -0.0443
     13 N2         -1.2277   -3.5769    4.3194 N.4       1 <0>        -0.6341
     14 C11         0.0988   -6.1478    0.7772 C.3       1 <0>         0.1191
     15 C12         1.5276   -6.6827    0.6617 C.3       1 <0>         0.0747
     16 H1          2.0637   -6.4942    1.5919 H         1 <0>         0.0587
     17 C13         1.4899   -8.1895    0.3886 C.3       1 <0>        -0.1523
     18 C14         2.9266   -8.7001    0.2443 C.3       1 <0>        -0.1134
     19 C15         3.6363   -7.9248   -0.8625 C.3       1 <0>        -0.1247
     20 H2          4.6862   -8.2165   -0.8883 H         1 <0>         0.0909
     21 C16         2.9947   -8.2314   -2.2186 C.3       1 <0>         0.2051
     22 H3          1.9713   -7.8565   -2.2366 H         1 <0>         0.0864
     23 N3          3.7915   -7.5551   -3.2525 N.pl3     1 <0>        -0.7340
     24 C17         4.2152   -6.2402   -3.0298 C.ar      1 <0>         0.2695
     25 C18         4.7317   -5.5078   -4.0939 C.ar      1 <0>        -0.1929
     26 C19         5.1601   -4.2107   -3.8965 C.ar      1 <0>        -0.0162
     27 C20         5.0761   -3.6396   -2.6397 C.ar      1 <0>        -0.2441
     28 C21         4.5619   -4.3639   -1.5816 C.ar      1 <0>         0.0005
     29 C22         4.1274   -5.6645   -1.7724 C.ar      1 <0>        -0.1610
     30 C23         3.5383   -6.4220   -0.6113 C.3       1 <0>         0.1572
     31 H4          4.0967   -6.1674    0.2896 H         1 <0>         0.0617
     32 O2          2.1969   -6.0277   -0.4162 O.3       1 <0>        -0.3517
     33 C24         5.5468   -2.2244   -2.4238 C.3       1 <0>         0.5137
     34 F1          6.0222   -1.7018   -3.6314 F         1 <0>        -0.1770
     35 F2          4.4808   -1.4432   -1.9651 F         1 <0>        -0.1827
     36 F3          6.5745   -2.2145   -1.4747 F         1 <0>        -0.1797
     37 C25         2.9979   -9.7188   -2.4608 C.ar      1 <0>        -0.0983
     38 C26         4.1489  -10.3448   -2.9016 C.ar      1 <0>        -0.1096
     39 C27         4.1519  -11.7092   -3.1237 C.ar      1 <0>        -0.1142
     40 C28         3.0040  -12.4477   -2.9046 C.ar      1 <0>        -0.1123
     41 C29         1.8533  -11.8218   -2.4629 C.ar      1 <0>        -0.1158
     42 C30         1.8515  -10.4581   -2.2367 C.ar      1 <0>        -0.1063
     43 H5          1.6022    1.9463    1.7050 H         1 <0>         0.0795
     44 H6          1.0374    2.3006    0.0546 H         1 <0>         0.0758
     45 H7         -0.1314    2.2028    1.3935 H         1 <0>         0.0721
     46 H8          2.0142    0.2927   -0.8921 H         1 <0>         0.1366
     47 H9          1.7410   -2.1137   -1.3211 H         1 <0>         0.1363
     48 H10        -1.0901   -2.3453    1.8921 H         1 <0>         0.1125
     49 H11        -0.7946    0.0603    2.3109 H         1 <0>         0.1292
     50 H12         0.8030   -4.8603    3.0174 H         1 <0>         0.1029
     51 H13         0.5792   -3.1975    2.4229 H         1 <0>         0.1156
     52 H14        -1.8980   -3.6200    2.3289 H         1 <0>         0.1409
     53 H15        -1.6164   -5.2162    3.0645 H         1 <0>         0.1432
     54 H16        -0.8844   -2.6308    4.2473 H         1 <0>         0.4361
     55 H17        -2.1629   -3.5673    4.6982 H         1 <0>         0.4432
     56 H18        -0.4120   -6.6504    1.5986 H         1 <0>         0.0942
     57 H19        -0.4363   -6.3368   -0.1534 H         1 <0>         0.1040
     58 H20         1.0026   -8.6995    1.2196 H         1 <0>         0.0784
     59 H21         0.9400   -8.3803   -0.5330 H         1 <0>         0.0787
     60 H22         3.4584   -8.5586    1.1851 H         1 <0>         0.0693
     61 H23         2.9113   -9.7605   -0.0077 H         1 <0>         0.0822
     62 H24         4.0203   -8.0134   -4.0762 H         1 <0>         0.4087
     63 H25         4.7979   -5.9546   -5.0749 H         1 <0>         0.1360
     64 H26         5.5610   -3.6423   -4.7228 H         1 <0>         0.1404
     65 H27         4.4990   -3.9140   -0.6018 H         1 <0>         0.1262
     66 H28         5.0457   -9.7679   -3.0728 H         1 <0>         0.1224
     67 H29         5.0509  -12.1982   -3.4688 H         1 <0>         0.1257
     68 H30         3.0062  -13.5135   -3.0788 H         1 <0>         0.1256
     69 H31         0.9564  -12.3987   -2.2921 H         1 <0>         0.1257
     70 H32         0.9536   -9.9697   -1.8881 H         1 <0>         0.1213
     71 H33        -0.6237   -4.1084    4.9283 H         1 <0>         0.4387
@<TRIPOS>BOND
     1    1    2 1
     2    1   43 1
     3    1   44 1
     4    1   45 1
     5    2    7 ar
     6    2    3 ar
     7    3    4 ar
     8    3   46 1
     9    4    5 ar
    10    4   47 1
    11    5    6 ar
    12    5    8 1
    13    6    7 ar
    14    6   48 1
    15    7   49 1
    16    8    9 2
    17    8   10 am
    18   10   11 1
    19   10   14 1
    20   11   12 1
    21   11   50 1
    22   11   51 1
    23   12   13 1
    24   12   52 1
    25   12   53 1
    26   13   54 1
    27   13   55 1
    28   13   71 1
    29   14   15 1
    30   14   56 1
    31   14   57 1
    32   15   16 1
    33   15   32 1
    34   15   17 1
    35   17   18 1
    36   17   58 1
    37   17   59 1
    38   18   19 1
    39   18   60 1
    40   18   61 1
    41   19   20 1
    42   19   30 1
    43   19   21 1
    44   21   22 1
    45   21   23 1
    46   21   37 1
    47   23   24 1
    48   23   62 1
    49   24   29 ar
    50   24   25 ar
    51   25   26 ar
    52   25   63 1
    53   26   27 ar
    54   26   64 1
    55   27   28 ar
    56   27   33 1
    57   28   29 ar
    58   28   65 1
    59   29   30 1
    60   30   31 1
    61   30   32 1
    62   33   34 1
    63   33   35 1
    64   33   36 1
    65   37   42 ar
    66   37   38 ar
    67   38   39 ar
    68   38   66 1
    69   39   40 ar
    70   39   67 1
    71   40   41 ar
    72   40   68 1
    73   41   42 ar
    74   41   69 1
    75   42   70 1
@<TRIPOS>MOLECULE
CHEMBL207993
   69    72     0     0     0
SMALL
USER_CHARGES

@<TRIPOS>ATOM
      1 C1         -0.2338    1.9126   -1.0111 C.3       1 <0>        -0.1671
      2 C2         -0.2361    0.3998   -0.7827 C.3       1 <0>         0.1307
      3 N1          0.5643   -0.2523   -1.8221 N.am      1 <0>        -0.7309
      4 C3          0.7052   -1.5926   -1.8225 C.2       1 <0>         0.7410
      5 O1          0.1679   -2.2608   -0.9602 O.2       1 <0>        -0.5623
      6 N2          1.4416   -2.1925   -2.7787 N.am      1 <0>        -0.4717
      7 C4          1.7572   -3.6285   -2.8414 C.3       1 <0>         0.2057
      8 C5          2.6115   -3.7554   -4.1183 C.3       1 <0>        -0.1223
      9 C6          2.6856   -2.3414   -4.6488 C.2       1 <0>         0.1273
     10 N3          2.0234   -1.5553   -3.8728 N.2       1 <0>        -0.2173
     11 C7          3.4010   -1.9273   -5.8699 C.ar      1 <0>        -0.0413
     12 C8          4.0780   -2.8742   -6.6418 C.ar      1 <0>        -0.1012
     13 C9          4.7459   -2.4791   -7.7844 C.ar      1 <0>         0.0947
     14 C10         4.7455   -1.1465   -8.1656 C.ar      1 <0>        -0.1043
     15 C11         4.0774   -0.2035   -7.4063 C.ar      1 <0>        -0.1241
     16 C12         3.4000   -0.5853   -6.2638 C.ar      1 <0>         0.1253
     17 F1          2.7431    0.3365   -5.5262 F         1 <0>        -0.1147
     18 F2          5.4016   -3.3937   -8.5319 F         1 <0>        -0.1271
     19 C13         0.4766   -4.4564   -2.9658 C.3       1 <0>        -0.1222
     20 C14        -0.3401   -3.9562   -4.1590 C.3       1 <0>        -0.1172
     21 C15        -1.6824   -4.6891   -4.2015 C.3       1 <0>        -0.1473
     22 C16        -2.4991   -4.1889   -5.3947 C.3       1 <0>        -0.0099
     23 N4         -3.7880   -4.8927   -5.4354 N.4       1 <0>        -0.5087
     24 C17        -4.5721   -4.4124   -6.5811 C.3       1 <0>         0.0469
     25 C18        -5.8942   -5.1343   -6.6229 C.ar      1 <0>        -0.1690
     26 C19        -6.0133   -6.3184   -7.3262 C.ar      1 <0>        -0.0932
     27 C20        -7.2261   -6.9806   -7.3646 C.ar      1 <0>        -0.1144
     28 C21        -8.3197   -6.4590   -6.6992 C.ar      1 <0>        -0.0821
     29 C22        -8.2005   -5.2754   -5.9951 C.ar      1 <0>        -0.1141
     30 C23        -6.9865   -4.6154   -5.9532 C.ar      1 <0>        -0.0931
     31 C24         2.5479   -4.0510   -1.6301 C.ar      1 <0>        -0.0911
     32 C25         2.4498   -5.3466   -1.1580 C.ar      1 <0>        -0.1053
     33 C26         3.1751   -5.7342   -0.0469 C.ar      1 <0>        -0.1157
     34 C27         3.9989   -4.8263    0.5919 C.ar      1 <0>        -0.1094
     35 C28         4.0978   -3.5310    0.1193 C.ar      1 <0>        -0.1135
     36 C29         3.3757   -3.1446   -0.9943 C.ar      1 <0>        -0.0985
     37 H1          0.7897    2.2850   -0.9686 H         1 <0>         0.0647
     38 H2         -0.6602    2.1329   -1.9898 H         1 <0>         0.0621
     39 H3         -0.8294    2.3978   -0.2378 H         1 <0>         0.0793
     40 H4          0.1903    0.1795    0.1960 H         1 <0>         0.0694
     41 H5         -1.2597    0.0275   -0.8252 H         1 <0>         0.0660
     42 H6          0.9929    0.2807   -2.5099 H         1 <0>         0.4081
     43 H7          3.6077   -4.1258   -3.8765 H         1 <0>         0.1116
     44 H8          2.1241   -4.4098   -4.8409 H         1 <0>         0.1100
     45 H9          4.0794   -3.9129   -6.3458 H         1 <0>         0.1514
     46 H10         5.2697   -0.8432   -9.0598 H         1 <0>         0.1537
     47 H11         4.0815    0.8332   -7.7091 H         1 <0>         0.1548
     48 H12         0.7348   -5.5046   -3.1161 H         1 <0>         0.0860
     49 H13        -0.1121   -4.3542   -2.0542 H         1 <0>         0.0960
     50 H14        -0.5141   -2.8850   -4.0569 H         1 <0>         0.0737
     51 H15         0.2084   -4.1489   -5.0811 H         1 <0>         0.0743
     52 H16        -1.5085   -5.7603   -4.3037 H         1 <0>         0.0898
     53 H17        -2.2309   -4.4964   -3.2794 H         1 <0>         0.0895
     54 H18        -2.6731   -3.1178   -5.2925 H         1 <0>         0.1305
     55 H19        -1.9506   -4.3816   -6.3167 H         1 <0>         0.1324
     56 H20        -3.6269   -5.8842   -5.5300 H         1 <0>         0.4273
     57 H21        -4.7460   -3.3413   -6.4789 H         1 <0>         0.1369
     58 H22        -4.0236   -4.6051   -7.5031 H         1 <0>         0.1376
     59 H23        -5.1589   -6.7259   -7.8461 H         1 <0>         0.1313
     60 H24        -7.3193   -7.9053   -7.9147 H         1 <0>         0.1365
     61 H25        -9.2675   -6.9760   -6.7297 H         1 <0>         0.1364
     62 H26        -9.0550   -4.8677   -5.4755 H         1 <0>         0.1365
     63 H27        -6.8924   -3.6926   -5.4000 H         1 <0>         0.1312
     64 H28         1.8062   -6.0558   -1.6571 H         1 <0>         0.1230
     65 H29         3.0979   -6.7462    0.3223 H         1 <0>         0.1266
     66 H30         4.5651   -5.1289    1.4604 H         1 <0>         0.1262
     67 H31         4.7411   -2.8217    0.6186 H         1 <0>         0.1242
     68 H32         3.4558   -2.1337   -1.3658 H         1 <0>         0.1123
     69 H33        -4.2957   -4.7143   -4.5819 H         1 <0>         0.4279
@<TRIPOS>BOND
     1    1    2 1
     2    1   37 1
     3    1   38 1
     4    1   39 1
     5    2    3 1
     6    2   40 1
     7    2   41 1
     8    3    4 am
     9    3   42 1
    10    4    5 2
    11    4    6 am
    12    6   10 1
    13    6    7 1
    14    7    8 1
    15    7   19 1
    16    7   31 1
    17    8    9 1
    18    8   43 1
    19    8   44 1
    20    9   10 2
    21    9   11 1
    22   11   16 ar
    23   11   12 ar
    24   12   13 ar
    25   12   45 1
    26   13   14 ar
    27   13   18 1
    28   14   15 ar
    29   14   46 1
    30   15   16 ar
    31   15   47 1
    32   16   17 1
    33   19   20 1
    34   19   48 1
    35   19   49 1
    36   20   21 1
    37   20   50 1
    38   20   51 1
    39   21   22 1
    40   21   52 1
    41   21   53 1
    42   22   23 1
    43   22   54 1
    44   22   55 1
    45   23   24 1
    46   23   56 1
    47   23   69 1
    48   24   25 1
    49   24   57 1
    50   24   58 1
    51   25   30 ar
    52   25   26 ar
    53   26   27 ar
    54   26   59 1
    55   27   28 ar
    56   27   60 1
    57   28   29 ar
    58   28   61 1
    59   29   30 ar
    60   29   62 1
    61   30   63 1
    62   31   36 ar
    63   31   32 ar
    64   32   33 ar
    65   32   64 1
    66   33   34 ar
    67   33   65 1
    68   34   35 ar
    69   34   66 1
    70   35   36 ar
    71   35   67 1
    72   36   68 1
@<TRIPOS>MOLECULE
CHEMBL207993__1
   69    72     0     0     0
SMALL
USER_CHARGES

@<TRIPOS>ATOM
      1 C1         -0.3548    1.2405    0.3281 C.3       1 <0>        -0.1667
      2 C2         -0.2529   -0.2823    0.2202 C.3       1 <0>         0.1303
      3 N1          0.4759   -0.6377   -0.9999 N.am      1 <0>        -0.7311
      4 C3          0.6883   -1.9332   -1.3048 C.2       1 <0>         0.7392
      5 O1          0.2751   -2.8071   -0.5671 O.2       1 <0>        -0.5589
      6 N2          1.3588   -2.2601   -2.4273 N.am      1 <0>        -0.4715
      7 C4          1.7475   -3.6222   -2.8262 C.3       1 <0>         0.2054
      8 C5          2.4764   -3.4117   -4.1682 C.3       1 <0>        -0.1219
      9 C6          2.4171   -1.9163   -4.3840 C.2       1 <0>         0.1253
     10 N3          1.7919   -1.3643   -3.4028 N.2       1 <0>        -0.2156
     11 C7          2.9829   -1.2009   -5.5427 C.ar      1 <0>        -0.0411
     12 C8          3.6323   -1.9095   -6.5561 C.ar      1 <0>        -0.1015
     13 C9          4.1598   -1.2328   -7.6385 C.ar      1 <0>         0.0944
     14 C10         4.0459    0.1462   -7.7204 C.ar      1 <0>        -0.1044
     15 C11         3.4043    0.8543   -6.7209 C.ar      1 <0>        -0.1241
     16 C12         2.8666    0.1898   -5.6349 C.ar      1 <0>         0.1255
     17 F1          2.2351    0.8825   -4.6620 F         1 <0>        -0.1145
     18 F2          4.7887   -1.9165   -8.6194 F         1 <0>        -0.1272
     19 C13         2.6917   -4.2376   -1.7914 C.3       1 <0>        -0.1218
     20 C14         3.8849   -3.3054   -1.5718 C.3       1 <0>        -0.1176
     21 C15         4.8744   -3.9623   -0.6072 C.3       1 <0>        -0.1477
     22 C16         6.0677   -3.0301   -0.3876 C.3       1 <0>        -0.0102
     23 N4          7.0177   -3.6608    0.5384 N.4       1 <0>        -0.5087
     24 C17         8.1634   -2.7658    0.7493 C.3       1 <0>         0.0469
     25 C18         9.1380   -3.4128    1.6993 C.ar      1 <0>        -0.1691
     26 C19         9.0157   -3.2077    3.0609 C.ar      1 <0>        -0.0932
     27 C20         9.9097   -3.8011    3.9323 C.ar      1 <0>        -0.1142
     28 C21        10.9258   -4.6000    3.4423 C.ar      1 <0>        -0.0820
     29 C22        11.0476   -4.8059    2.0807 C.ar      1 <0>        -0.1143
     30 C23        10.1510   -4.2159    1.2096 C.ar      1 <0>        -0.0931
     31 C24         0.5285   -4.4879   -3.0149 C.ar      1 <0>        -0.0893
     32 C25         0.6050   -5.8489   -2.7856 C.ar      1 <0>        -0.1060
     33 C26        -0.5132   -6.6430   -2.9586 C.ar      1 <0>        -0.1163
     34 C27        -1.7081   -6.0759   -3.3607 C.ar      1 <0>        -0.1094
     35 C28        -1.7849   -4.7147   -3.5891 C.ar      1 <0>        -0.1138
     36 C29        -0.6677   -3.9201   -3.4119 C.ar      1 <0>        -0.0947
     37 H1          0.6463    1.6700    0.3648 H         1 <0>         0.0614
     38 H2         -0.8864    1.6315   -0.5394 H         1 <0>         0.0649
     39 H3         -0.8970    1.5049    1.2360 H         1 <0>         0.0792
     40 H4          0.2787   -0.6732    1.0878 H         1 <0>         0.0665
     41 H5         -1.2540   -0.7118    0.1836 H         1 <0>         0.0694
     42 H6          0.8056    0.0594   -1.5884 H         1 <0>         0.4076
     43 H7          3.5111   -3.7472   -4.0980 H         1 <0>         0.1097
     44 H8          1.9574   -3.9348   -4.9713 H         1 <0>         0.1117
     45 H9          3.7221   -2.9839   -6.4934 H         1 <0>         0.1513
     46 H10         4.4606    0.6702   -8.5689 H         1 <0>         0.1536
     47 H11         3.3195    1.9287   -6.7911 H         1 <0>         0.1549
     48 H12         2.1595   -4.3745   -0.8500 H         1 <0>         0.0931
     49 H13         3.0464   -5.2031   -2.1520 H         1 <0>         0.0873
     50 H14         4.3782   -3.1159   -2.5251 H         1 <0>         0.0753
     51 H15         3.5367   -2.3630   -1.1491 H         1 <0>         0.0733
     52 H16         4.3812   -4.1518    0.3461 H         1 <0>         0.0893
     53 H17         5.2226   -4.9047   -1.0299 H         1 <0>         0.0902
     54 H18         6.5609   -2.8406   -1.3410 H         1 <0>         0.1325
     55 H19         5.7195   -2.0877    0.0350 H         1 <0>         0.1310
     56 H20         6.5611   -3.8362    1.4209 H         1 <0>         0.4278
     57 H21         8.6567   -2.5763   -0.2040 H         1 <0>         0.1376
     58 H22         7.8152   -1.8233    1.1720 H         1 <0>         0.1371
     59 H23         8.2219   -2.5835    3.4438 H         1 <0>         0.1311
     60 H24         9.8146   -3.6403    4.9961 H         1 <0>         0.1365
     61 H25        11.6247   -5.0631    4.1230 H         1 <0>         0.1365
     62 H26        11.8416   -5.4298    1.6978 H         1 <0>         0.1366
     63 H27        10.2439   -4.3797    0.1461 H         1 <0>         0.1314
     64 H28         1.5385   -6.2920   -2.4715 H         1 <0>         0.1221
     65 H29        -0.4532   -7.7064   -2.7801 H         1 <0>         0.1260
     66 H30        -2.5816   -6.6964   -3.4966 H         1 <0>         0.1258
     67 H31        -2.7183   -4.2718   -3.9036 H         1 <0>         0.1238
     68 H32        -0.7286   -2.8561   -3.5868 H         1 <0>         0.1115
     69 H33         7.3400   -4.5332    0.1472 H         1 <0>         0.4274
@<TRIPOS>BOND
     1    1    2 1
     2    1   37 1
     3    1   38 1
     4    1   39 1
     5    2    3 1
     6    2   40 1
     7    2   41 1
     8    3    4 am
     9    3   42 1
    10    4    5 2
    11    4    6 am
    12    6   10 1
    13    6    7 1
    14    7    8 1
    15    7   19 1
    16    7   31 1
    17    8    9 1
    18    8   43 1
    19    8   44 1
    20    9   10 2
    21    9   11 1
    22   11   16 ar
    23   11   12 ar
    24   12   13 ar
    25   12   45 1
    26   13   14 ar
    27   13   18 1
    28   14   15 ar
    29   14   46 1
    30   15   16 ar
    31   15   47 1
    32   16   17 1
    33   19   20 1
    34   19   48 1
    35   19   49 1
    36   20   21 1
    37   20   50 1
    38   20   51 1
    39   21   22 1
    40   21   52 1
    41   21   53 1
    42   22   23 1
    43   22   54 1
    44   22   55 1
    45   23   24 1
    46   23   56 1
    47   23   69 1
    48   24   25 1
    49   24   57 1
    50   24   58 1
    51   25   30 ar
    52   25   26 ar
    53   26   27 ar
    54   26   59 1
    55   27   28 ar
    56   27   60 1
    57   28   29 ar
    58   28   61 1
    59   29   30 ar
    60   29   62 1
    61   30   63 1
    62   31   36 ar
    63   31   32 ar
    64   32   33 ar
    65   32   64 1
    66   33   34 ar
    67   33   65 1
    68   34   35 ar
    69   34   66 1
    70   35   36 ar
    71   35   67 1
    72   36   68 1
@<TRIPOS>MOLECULE
CHEMBL1084116
   48    51     0     0     0
SMALL
USER_CHARGES

@<TRIPOS>ATOM
      1 C1         -0.0187    1.5258    0.0104 C.3       1 <0>        -0.1389
      2 C2          0.0021   -0.0041    0.0020 C.3       1 <0>        -0.0226
      3 C3          0.7421   -0.5109    1.2415 C.3       1 <0>        -0.1388
      4 C4         -1.4333   -0.5336    0.0129 C.3       1 <0>        -0.1446
      5 C5          0.7074   -0.4901   -1.2379 C.ar      1 <0>        -0.1237
      6 C6          0.0345   -1.2846   -2.1482 C.ar      1 <0>        -0.0667
      7 C7          0.6791   -1.7274   -3.2853 C.ar      1 <0>        -0.1893
      8 C8          2.0055   -1.3763   -3.5154 C.ar      1 <0>         0.2305
      9 C9          2.6792   -0.5835   -2.6000 C.ar      1 <0>        -0.1531
     10 C10         2.0233   -0.1364   -1.4658 C.ar      1 <0>        -0.0467
     11 C11         4.1217   -0.1945   -2.8092 C.3       1 <0>         0.1532
     12 H1          4.2714    0.8341   -2.4812 H         1 <0>         0.0716
     13 C12         4.4848   -0.3147   -4.2872 C.3       1 <0>        -0.1248
     14 H2          3.9338    0.4359   -4.8539 H         1 <0>         0.0891
     15 C13         5.9820   -0.0985   -4.4910 C.3       1 <0>        -0.1181
     16 C14         6.7661   -1.0658   -3.5994 C.3       1 <0>        -0.1606
     17 C15         6.3365   -0.8532   -2.1445 C.3       1 <0>         0.0620
     18 O1          4.9473   -1.0664   -2.0332 O.3       1 <0>        -0.3721
     19 C16         4.0984   -1.7086   -4.7893 C.3       1 <0>         0.2515
     20 H3          4.5834   -2.4693   -4.1777 H         1 <0>         0.0995
     21 N1          2.6368   -1.8314   -4.6783 N.pl3     1 <0>        -0.7485
     22 C17         4.5164   -1.8673   -6.2285 C.2       1 <0>        -0.1478
     23 C18         5.6029   -2.4978   -6.7367 C.2       1 <0>        -0.1363
     24 C19         5.7868   -2.5180   -8.1070 C.2       1 <0>        -0.1368
     25 C20         4.8736   -1.9057   -8.9015 C.2       1 <0>        -0.1208
     26 S1          3.7044   -1.2803   -7.7060 S.3       1 <0>         0.1071
     27 Cl1         4.8454   -1.7712  -10.6321 Cl        1 <0>         0.0200
     28 H4          1.0039    1.9031    0.0027 H         1 <0>         0.0550
     29 H5         -0.5459    1.8868   -0.8726 H         1 <0>         0.0555
     30 H6         -0.5289    1.8773    0.9072 H         1 <0>         0.0565
     31 H7          0.2319   -0.1594    2.1383 H         1 <0>         0.0560
     32 H8          0.7568   -1.6008    1.2356 H         1 <0>         0.0559
     33 H9          1.7647   -0.1336    1.2338 H         1 <0>         0.0557
     34 H10        -1.9605   -0.1726   -0.8702 H         1 <0>         0.0577
     35 H11        -1.4185   -1.6235    0.0069 H         1 <0>         0.0580
     36 H12        -1.9435   -0.1821    0.9097 H         1 <0>         0.0570
     37 H13        -0.9947   -1.5587   -1.9691 H         1 <0>         0.1272
     38 H14         0.1535   -2.3467   -3.9971 H         1 <0>         0.1213
     39 H15         2.5432    0.4885   -0.7549 H         1 <0>         0.1203
     40 H16         6.2361   -0.2803   -5.5353 H         1 <0>         0.0749
     41 H17         6.2397    0.9275   -4.2283 H         1 <0>         0.0707
     42 H18         6.5523   -2.0923   -3.8973 H         1 <0>         0.0714
     43 H19         7.8337   -0.8694   -3.6976 H         1 <0>         0.0770
     44 H20         6.8711   -1.5518   -1.5008 H         1 <0>         0.0970
     45 H21         6.5641    0.1692   -1.8429 H         1 <0>         0.0475
     46 H22         2.1190   -2.2240   -5.3985 H         1 <0>         0.4031
     47 H23         6.3149   -2.9771   -6.0811 H         1 <0>         0.1433
     48 H24         6.6444   -3.0131   -8.5380 H         1 <0>         0.1446
@<TRIPOS>BOND
     1    1    2 1
     2    1   28 1
     3    1   29 1
     4    1   30 1
     5    2    3 1
     6    2    4 1
     7    2    5 1
     8    3   31 1
     9    3   32 1
    10    3   33 1
    11    4   34 1
    12    4   35 1
    13    4   36 1
    14    5   10 ar
    15    5    6 ar
    16    6    7 ar
    17    6   37 1
    18    7    8 ar
    19    7   38 1
    20    8   21 1
    21    8    9 ar
    22    9   10 ar
    23    9   11 1
    24   10   39 1
    25   11   12 1
    26   11   18 1
    27   11   13 1
    28   13   14 1
    29   13   15 1
    30   13   19 1
    31   15   16 1
    32   15   40 1
    33   15   41 1
    34   16   17 1
    35   16   42 1
    36   16   43 1
    37   17   18 1
    38   17   44 1
    39   17   45 1
    40   19   20 1
    41   19   21 1
    42   19   22 1
    43   21   46 1
    44   22   26 1
    45   22   23 2
    46   23   24 1
    47   23   47 1
    48   24   25 2
    49   24   48 1
    50   25   26 1
    51   25   27 1
@<TRIPOS>MOLECULE
CHEMBL1084391
   47    50     0     0     0
SMALL
USER_CHARGES

@<TRIPOS>ATOM
      1 C1         -0.0187    1.5258    0.0104 C.3       1 <0>        -0.1389
      2 C2          0.0021   -0.0041    0.0020 C.3       1 <0>        -0.0223
      3 C3          0.7421   -0.5109    1.2415 C.3       1 <0>        -0.1386
      4 C4         -1.4333   -0.5336    0.0129 C.3       1 <0>        -0.1445
      5 C5          0.7074   -0.4901   -1.2379 C.ar      1 <0>        -0.1254
      6 C6          0.0345   -1.2846   -2.1482 C.ar      1 <0>        -0.0658
      7 C7          0.6791   -1.7274   -3.2853 C.ar      1 <0>        -0.1893
      8 C8          2.0055   -1.3763   -3.5154 C.ar      1 <0>         0.2337
      9 C9          2.6792   -0.5835   -2.6000 C.ar      1 <0>        -0.1555
     10 C10         2.0233   -0.1364   -1.4658 C.ar      1 <0>        -0.0456
     11 C11         4.1217   -0.1945   -2.8092 C.3       1 <0>         0.1543
     12 H1          4.2714    0.8341   -2.4812 H         1 <0>         0.0735
     13 C12         4.4848   -0.3147   -4.2872 C.3       1 <0>        -0.1216
     14 H2          3.9338    0.4359   -4.8539 H         1 <0>         0.0946
     15 C13         5.9820   -0.0985   -4.4910 C.3       1 <0>        -0.1196
     16 C14         6.7661   -1.0658   -3.5994 C.3       1 <0>        -0.1619
     17 C15         6.3365   -0.8532   -2.1445 C.3       1 <0>         0.0623
     18 O1          4.9473   -1.0664   -2.0332 O.3       1 <0>        -0.3721
     19 C16         4.0984   -1.7086   -4.7893 C.3       1 <0>         0.2601
     20 H3          4.5834   -2.4693   -4.1777 H         1 <0>         0.0980
     21 N1          2.6368   -1.8314   -4.6783 N.pl3     1 <0>        -0.7365
     22 C17         4.5164   -1.8673   -6.2285 C.2       1 <0>         0.0367
     23 N2          3.9636   -1.3517   -7.2979 N.2       1 <0>        -0.5007
     24 C18         4.4492   -1.5843   -8.5010 C.2       1 <0>         0.0320
     25 C19         5.5457   -2.3810   -8.5786 C.2       1 <0>        -0.2246
     26 S1          5.8112   -2.7444   -6.8506 S.3       1 <0>         0.1228
     27 H4          1.0039    1.9031    0.0027 H         1 <0>         0.0550
     28 H5         -0.5459    1.8868   -0.8726 H         1 <0>         0.0555
     29 H6         -0.5289    1.8773    0.9072 H         1 <0>         0.0563
     30 H7          0.2319   -0.1594    2.1383 H         1 <0>         0.0557
     31 H8          0.7568   -1.6008    1.2356 H         1 <0>         0.0559
     32 H9          1.7647   -0.1336    1.2338 H         1 <0>         0.0558
     33 H10        -1.9605   -0.1726   -0.8702 H         1 <0>         0.0577
     34 H11        -1.4185   -1.6235    0.0069 H         1 <0>         0.0580
     35 H12        -1.9435   -0.1821    0.9097 H         1 <0>         0.0568
     36 H13        -0.9947   -1.5587   -1.9691 H         1 <0>         0.1270
     37 H14         0.1535   -2.3467   -3.9971 H         1 <0>         0.1210
     38 H15         2.5432    0.4885   -0.7549 H         1 <0>         0.1205
     39 H16         6.2361   -0.2803   -5.5353 H         1 <0>         0.0674
     40 H17         6.2397    0.9275   -4.2283 H         1 <0>         0.0742
     41 H18         6.5523   -2.0923   -3.8973 H         1 <0>         0.0698
     42 H19         7.8337   -0.8694   -3.6976 H         1 <0>         0.0798
     43 H20         6.8711   -1.5518   -1.5008 H         1 <0>         0.0986
     44 H21         6.5641    0.1692   -1.8429 H         1 <0>         0.0488
     45 H22         2.1190   -2.2240   -5.3985 H         1 <0>         0.4066
     46 H23         3.9953   -1.1607   -9.3848 H         1 <0>         0.1751
     47 H24         6.1046   -2.7028   -9.4449 H         1 <0>         0.1995
@<TRIPOS>BOND
     1    1    2 1
     2    1   27 1
     3    1   28 1
     4    1   29 1
     5    2    3 1
     6    2    4 1
     7    2    5 1
     8    3   30 1
     9    3   31 1
    10    3   32 1
    11    4   33 1
    12    4   34 1
    13    4   35 1
    14    5   10 ar
    15    5    6 ar
    16    6    7 ar
    17    6   36 1
    18    7    8 ar
    19    7   37 1
    20    8   21 1
    21    8    9 ar
    22    9   10 ar
    23    9   11 1
    24   10   38 1
    25   11   12 1
    26   11   18 1
    27   11   13 1
    28   13   14 1
    29   13   15 1
    30   13   19 1
    31   15   16 1
    32   15   39 1
    33   15   40 1
    34   16   17 1
    35   16   41 1
    36   16   42 1
    37   17   18 1
    38   17   43 1
    39   17   44 1
    40   19   20 1
    41   19   21 1
    42   19   22 1
    43   21   45 1
    44   22   26 1
    45   22   23 2
    46   23   24 1
    47   24   25 2
    48   24   46 1
    49   25   26 1
    50   25   47 1
@<TRIPOS>MOLECULE
CHEMBL209815
   63    66     0     0     0
SMALL
USER_CHARGES

@<TRIPOS>ATOM
      1 C1          0.6814   -0.3779   -1.2717 C.3       1 <0>        -0.1592
      2 C2          0.1484   -1.3109   -0.1826 C.3       1 <0>        -0.1396
      3 C3         -1.2448   -0.8481    0.2485 C.3       1 <0>         0.1931
      4 C4         -1.7152   -1.6853    1.4099 C.2       1 <0>         0.3633
      5 N1         -2.3463   -2.7841    1.1653 N.2       1 <0>        -0.3075
      6 N2         -2.8084   -3.6050    2.2017 N.pl3     1 <0>        -0.2686
      7 C5         -2.5781   -3.2205    3.5103 C.2       1 <0>        -0.0943
      8 C6         -3.1225   -4.1814    4.3333 C.2       1 <0>        -0.0651
      9 C7         -3.6859   -5.1536    3.5034 C.2       1 <0>        -0.1676
     10 C8         -3.4782   -4.7742    2.2145 C.2       1 <0>         0.1318
     11 Cl1        -3.9935   -5.6549    0.8100 Cl        1 <0>        -0.0034
     12 C9         -1.8597   -1.9699    3.7532 C.2       1 <0>         0.5877
     13 O1         -1.6325   -1.5892    4.8876 O.2       1 <0>        -0.4704
     14 N3         -1.4502   -1.2509    2.6846 N.am      1 <0>        -0.5492
     15 C10        -0.7232    0.0045    2.8885 C.3       1 <0>         0.1386
     16 C11        -1.6987    1.0992    3.2362 C.ar      1 <0>        -0.1367
     17 C12        -2.1525    1.9587    2.2532 C.ar      1 <0>        -0.0992
     18 C13        -3.0473    2.9628    2.5722 C.ar      1 <0>        -0.1192
     19 C14        -3.4888    3.1073    3.8742 C.ar      1 <0>        -0.1029
     20 C15        -3.0357    2.2473    4.8571 C.ar      1 <0>        -0.1223
     21 C16        -2.1441    1.2405    4.5372 C.ar      1 <0>        -0.0898
     22 N4         -2.1774   -0.9983   -0.8713 N.am      1 <0>        -0.5923
     23 C17        -2.2947   -2.2864   -1.5591 C.3       1 <0>         0.0889
     24 C18        -1.1714   -2.4185   -2.5895 C.3       1 <0>        -0.2005
     25 C19        -1.3983   -3.6745   -3.4332 C.3       1 <0>        -0.0122
     26 N5         -0.2602   -3.8662   -4.3419 N.4       1 <0>        -0.6372
     27 C20        -2.9276    0.0486   -1.2686 C.2       1 <0>         0.5678
     28 O2         -2.7125    1.1565   -0.8170 O.2       1 <0>        -0.4989
     29 C21        -4.0115   -0.1505   -2.2532 C.ar      1 <0>        -0.1258
     30 C22        -3.7691   -0.8661   -3.4272 C.ar      1 <0>        -0.0970
     31 C23        -4.7846   -1.0489   -4.3420 C.ar      1 <0>        -0.1177
     32 C24        -6.0430   -0.5240   -4.0982 C.ar      1 <0>        -0.0110
     33 C25        -6.2895    0.1868   -2.9352 C.ar      1 <0>        -0.1038
     34 C26        -5.2835    0.3713   -2.0103 C.ar      1 <0>        -0.0479
     35 Cl2        -7.3161   -0.7573   -5.2550 Cl        1 <0>        -0.0462
     36 H1          1.6739   -0.7076   -1.5788 H         1 <0>         0.0697
     37 H2          0.0096   -0.3999   -2.1298 H         1 <0>         0.0598
     38 H3          0.7405    0.6385   -0.8825 H         1 <0>         0.0707
     39 H4          0.0893   -2.3273   -0.5718 H         1 <0>         0.0834
     40 H5          0.8202   -1.2889    0.6755 H         1 <0>         0.0913
     41 H6         -1.2031    0.1989    0.5487 H         1 <0>         0.1441
     42 H7         -3.1152   -4.1829    5.4133 H         1 <0>         0.1683
     43 H8         -4.1961   -6.0484    3.8282 H         1 <0>         0.1736
     44 H9         -0.0086   -0.1175    3.7025 H         1 <0>         0.1132
     45 H10        -0.1912    0.2688    1.9745 H         1 <0>         0.1024
     46 H11        -1.8076    1.8458    1.2360 H         1 <0>         0.1275
     47 H12        -3.4013    3.6347    1.8043 H         1 <0>         0.1258
     48 H13        -4.1873    3.8923    4.1236 H         1 <0>         0.1261
     49 H14        -3.3803    2.3604    5.8744 H         1 <0>         0.1270
     50 H15        -1.7930    0.5663    5.3044 H         1 <0>         0.1363
     51 H16        -2.2177   -3.0949   -0.8321 H         1 <0>         0.1211
     52 H17        -3.2592   -2.3423   -2.0639 H         1 <0>         0.1062
     53 H18        -1.1674   -1.5417   -3.2371 H         1 <0>         0.0991
     54 H19        -0.2135   -2.4945   -2.0750 H         1 <0>         0.1098
     55 H20        -1.4900   -4.5407   -2.7779 H         1 <0>         0.1416
     56 H21        -2.3129   -3.5609   -4.0153 H         1 <0>         0.1383
     57 H22         0.5725   -4.0524   -3.8034 H         1 <0>         0.4367
     58 H23        -0.4463   -4.6464   -4.9541 H         1 <0>         0.4417
     59 H24        -2.7881   -1.2752   -3.6188 H         1 <0>         0.1339
     60 H25        -4.5983   -1.6023   -5.2506 H         1 <0>         0.1407
     61 H26        -7.2726    0.5941   -2.7506 H         1 <0>         0.1476
     62 H27        -5.4779    0.9222   -1.1019 H         1 <0>         0.1431
     63 H28        -0.1251   -3.0315   -4.8925 H         1 <0>         0.4358
@<TRIPOS>BOND
     1    1    2 1
     2    1   36 1
     3    1   37 1
     4    1   38 1
     5    2    3 1
     6    2   39 1
     7    2   40 1
     8    3    4 1
     9    3   22 1
    10    3   41 1
    11    4   14 1
    12    4    5 2
    13    5    6 1
    14    6   10 1
    15    6    7 1
    16    7    8 2
    17    7   12 1
    18    8    9 1
    19    8   42 1
    20    9   10 2
    21    9   43 1
    22   10   11 1
    23   12   13 2
    24   12   14 am
    25   14   15 1
    26   15   16 1
    27   15   44 1
    28   15   45 1
    29   16   21 ar
    30   16   17 ar
    31   17   18 ar
    32   17   46 1
    33   18   19 ar
    34   18   47 1
    35   19   20 ar
    36   19   48 1
    37   20   21 ar
    38   20   49 1
    39   21   50 1
    40   22   23 1
    41   22   27 am
    42   23   24 1
    43   23   51 1
    44   23   52 1
    45   24   25 1
    46   24   53 1
    47   24   54 1
    48   25   26 1
    49   25   55 1
    50   25   56 1
    51   26   57 1
    52   26   58 1
    53   26   63 1
    54   27   28 2
    55   27   29 1
    56   29   34 ar
    57   29   30 ar
    58   30   31 ar
    59   30   59 1
    60   31   32 ar
    61   31   60 1
    62   32   33 ar
    63   32   35 1
    64   33   34 ar
    65   33   61 1
    66   34   62 1
@<TRIPOS>MOLECULE
CHEMBL209815__1
   63    66     0     0     0
SMALL
USER_CHARGES

@<TRIPOS>ATOM
      1 C1          0.2093    0.3728    0.1291 C.3       1 <0>        -0.1696
      2 C2         -0.3445   -1.0467    0.2680 C.3       1 <0>        -0.1379
      3 C3         -1.8737   -1.0024    0.2411 C.3       1 <0>         0.1495
      4 C4         -2.4171   -2.4079    0.2509 C.2       1 <0>         0.3613
      5 N1         -2.0562   -3.2046    1.1998 N.2       1 <0>        -0.3021
      6 N2         -2.5269   -4.5221    1.2637 N.pl3     1 <0>        -0.2685
      7 C5         -3.3960   -4.9680    0.2844 C.2       1 <0>        -0.0947
      8 C6         -3.7097   -6.2794    0.5654 C.2       1 <0>        -0.0634
      9 C7         -3.0175   -6.6209    1.7297 C.2       1 <0>        -0.1665
     10 C8         -2.3083   -5.5317    2.1288 C.2       1 <0>         0.1330
     11 Cl1        -1.2848   -5.4543    3.5290 Cl        1 <0>        -0.0028
     12 C9         -3.7857   -4.0401   -0.7769 C.2       1 <0>         0.5865
     13 O1         -4.5486   -4.3858   -1.6611 O.2       1 <0>        -0.4701
     14 N3         -3.2803   -2.7870   -0.7468 N.am      1 <0>        -0.5475
     15 C10        -3.6518   -1.8279   -1.7900 C.3       1 <0>         0.1199
     16 C11        -2.7551   -2.0148   -2.9866 C.ar      1 <0>        -0.1224
     17 C12        -1.5187   -1.3979   -3.0269 C.ar      1 <0>        -0.1182
     18 C13        -0.6962   -1.5694   -4.1246 C.ar      1 <0>        -0.1179
     19 C14        -1.1099   -2.3580   -5.1818 C.ar      1 <0>        -0.1014
     20 C15        -2.3459   -2.9757   -5.1412 C.ar      1 <0>        -0.1121
     21 C16        -3.1666   -2.8077   -4.0416 C.ar      1 <0>        -0.0836
     22 N4         -2.3622   -0.2817    1.4193 N.am      1 <0>        -0.5956
     23 C17        -1.9402   -0.6973    2.7592 C.3       1 <0>         0.1087
     24 C18        -0.7496    0.1535    3.2058 C.3       1 <0>        -0.1817
     25 C19        -0.3089   -0.2805    4.6052 C.3       1 <0>        -0.0069
     26 N5          0.8343    0.5364    5.0339 N.4       1 <0>        -0.6365
     27 C20        -3.1998    0.7637    1.2705 C.2       1 <0>         0.5711
     28 O2         -3.5418    1.4113    2.2406 O.2       1 <0>        -0.5036
     29 C21        -3.7023    1.1226   -0.0722 C.ar      1 <0>        -0.1457
     30 C22        -2.8482    1.0762   -1.1756 C.ar      1 <0>        -0.1195
     31 C23        -3.3230    1.4118   -2.4260 C.ar      1 <0>        -0.1056
     32 C24        -4.6442    1.7947   -2.5884 C.ar      1 <0>        -0.0065
     33 C25        -5.4963    1.8425   -1.4974 C.ar      1 <0>        -0.1026
     34 C26        -5.0345    1.5037   -0.2431 C.ar      1 <0>        -0.0466
     35 Cl2        -5.2344    2.2168   -4.1655 Cl        1 <0>        -0.0382
     36 H1          1.2853    0.3616    0.3029 H         1 <0>         0.0772
     37 H2          0.0074    0.7449   -0.8753 H         1 <0>         0.0673
     38 H3         -0.2702    1.0231    0.8607 H         1 <0>         0.0640
     39 H4          0.0158   -1.6597   -0.5581 H         1 <0>         0.0940
     40 H5         -0.0101   -1.4764    1.2122 H         1 <0>         0.0898
     41 H6         -2.2065   -0.4905   -0.6619 H         1 <0>         0.1594
     42 H7         -4.3653   -6.9207   -0.0051 H         1 <0>         0.1692
     43 H8         -3.0414   -7.5802    2.2251 H         1 <0>         0.1747
     44 H9         -4.6885   -1.9936   -2.0833 H         1 <0>         0.1134
     45 H10        -3.5403   -0.8135   -1.4072 H         1 <0>         0.1067
     46 H11        -1.1955   -0.7818   -2.2009 H         1 <0>         0.1095
     47 H12         0.2695   -1.0868   -4.1563 H         1 <0>         0.1279
     48 H13        -0.4675   -2.4914   -6.0397 H         1 <0>         0.1292
     49 H14        -2.6692   -3.5916   -5.9673 H         1 <0>         0.1304
     50 H15        -4.1308   -3.2932   -4.0082 H         1 <0>         0.1321
     51 H16        -2.7656   -0.5624    3.4582 H         1 <0>         0.0963
     52 H17        -1.6491   -1.7475    2.7391 H         1 <0>         0.1134
     53 H18         0.0758    0.0186    2.5068 H         1 <0>         0.0984
     54 H19        -1.0407    1.2037    3.2259 H         1 <0>         0.0985
     55 H20        -1.1343   -0.1456    5.3042 H         1 <0>         0.1384
     56 H21        -0.0178   -1.3307    4.5850 H         1 <0>         0.1374
     57 H22         0.5648    1.5085    5.0526 H         1 <0>         0.4367
     58 H23         1.1249    0.2501    5.9568 H         1 <0>         0.4404
     59 H24        -1.8177    0.7785   -1.0501 H         1 <0>         0.1487
     60 H25        -2.6633    1.3763   -3.2804 H         1 <0>         0.1501
     61 H26        -6.5254    2.1422   -1.6301 H         1 <0>         0.1518
     62 H27        -5.7009    1.5374    0.6062 H         1 <0>         0.1480
     63 H28         1.5984    0.4115    4.3869 H         1 <0>         0.4348
@<TRIPOS>BOND
     1    1    2 1
     2    1   36 1
     3    1   37 1
     4    1   38 1
     5    2    3 1
     6    2   39 1
     7    2   40 1
     8    3    4 1
     9    3   22 1
    10    3   41 1
    11    4   14 1
    12    4    5 2
    13    5    6 1
    14    6   10 1
    15    6    7 1
    16    7    8 2
    17    7   12 1
    18    8    9 1
    19    8   42 1
    20    9   10 2
    21    9   43 1
    22   10   11 1
    23   12   13 2
    24   12   14 am
    25   14   15 1
    26   15   16 1
    27   15   44 1
    28   15   45 1
    29   16   21 ar
    30   16   17 ar
    31   17   18 ar
    32   17   46 1
    33   18   19 ar
    34   18   47 1
    35   19   20 ar
    36   19   48 1
    37   20   21 ar
    38   20   49 1
    39   21   50 1
    40   22   23 1
    41   22   27 am
    42   23   24 1
    43   23   51 1
    44   23   52 1
    45   24   25 1
    46   24   53 1
    47   24   54 1
    48   25   26 1
    49   25   55 1
    50   25   56 1
    51   26   57 1
    52   26   58 1
    53   26   63 1
    54   27   28 2
    55   27   29 1
    56   29   34 ar
    57   29   30 ar
    58   30   31 ar
    59   30   59 1
    60   31   32 ar
    61   31   60 1
    62   32   33 ar
    63   32   35 1
    64   33   34 ar
    65   33   61 1
    66   34   62 1
@<TRIPOS>MOLECULE
CHEMBL1222255
   35    37     0     0     0
SMALL
USER_CHARGES

@<TRIPOS>ATOM
      1 C1         -0.0172    1.3861    0.2169 C.ar      1 <0>        -0.1102
      2 C2          1.1687    2.0921    0.2144 C.ar      1 <0>        -0.0413
      3 C3          2.3691    1.4320    0.0233 C.ar      1 <0>        -0.1881
      4 C4          2.3886    0.0619   -0.1659 C.ar      1 <0>        -0.0630
      5 C5          1.2088   -0.6543   -0.1649 C.ar      1 <0>        -0.1115
      6 C6         -0.0036    0.0056    0.0267 C.ar      1 <0>         0.0459
      7 C7         -1.2750   -0.7588    0.0288 C.ar      1 <0>        -0.1100
      8 C8         -2.4873   -0.0965    0.2154 C.ar      1 <0>        -0.0668
      9 C9         -3.6677   -0.8090    0.2170 C.ar      1 <0>        -0.1231
     10 C10        -3.6494   -2.1864    0.0332 C.ar      1 <0>         0.1990
     11 C11        -2.4419   -2.8488   -0.1525 C.ar      1 <0>        -0.1506
     12 C12        -1.2596   -2.1396   -0.1615 C.ar      1 <0>        -0.0676
     13 N1         -4.8479   -2.9070    0.0357 N.am      1 <0>        -0.6877
     14 C13        -5.9732   -2.3450   -0.4485 C.2       1 <0>         0.7062
     15 O1         -5.9278   -1.2501   -0.9752 O.2       1 <0>        -0.5713
     16 N2         -7.1487   -2.9967   -0.3488 N.am      1 <0>        -0.8561
     17 C14         3.6607    2.2086    0.0207 C.3       1 <0>         0.2132
     18 N3          4.8254    1.6342    0.6987 N.pl3     1 <0>        -0.2242
     19 N4          4.2692    2.5613    1.3058 N.2       1 <0>         0.2012
     20 C15         3.8913    3.1326   -1.1767 C.3       1 <0>         0.4969
     21 F1          2.8684    4.0852   -1.2345 F         1 <0>        -0.1170
     22 F2          5.1237    3.7796   -1.0359 F         1 <0>        -0.1531
     23 F3          3.8927    2.3778   -2.3547 F         1 <0>        -0.1222
     24 H1         -0.9536    1.9019    0.3703 H         1 <0>         0.1542
     25 H2          1.1593    3.1620    0.3617 H         1 <0>         0.1494
     26 H3          3.3287   -0.4483   -0.3150 H         1 <0>         0.1351
     27 H4          1.2252   -1.7240   -0.3127 H         1 <0>         0.1509
     28 H5         -2.5020    0.9738    0.3590 H         1 <0>         0.1338
     29 H6         -4.6072   -0.2963    0.3615 H         1 <0>         0.1457
     30 H7         -2.4301   -3.9194   -0.2945 H         1 <0>         0.1354
     31 H8         -0.3219   -2.6542   -0.3108 H         1 <0>         0.1328
     32 H9         -4.8693   -3.8114    0.3858 H         1 <0>         0.4125
     33 H10        -7.1849   -3.8702    0.0714 H         1 <0>         0.4020
     34 H11        -7.9585   -2.5922   -0.6972 H         1 <0>         0.4233
     35 H12         5.5402    0.9787    0.6833 H         1 <0>         0.5264
@<TRIPOS>BOND
     1    1    6 ar
     2    1    2 ar
     3    1   24 1
     4    2    3 ar
     5    2   25 1
     6    3    4 ar
     7    3   17 1
     8    4    5 ar
     9    4   26 1
    10    5    6 ar
    11    5   27 1
    12    6    7 1
    13    7   12 ar
    14    7    8 ar
    15    8    9 ar
    16    8   28 1
    17    9   10 ar
    18    9   29 1
    19   10   11 ar
    20   10   13 1
    21   11   12 ar
    22   11   30 1
    23   12   31 1
    24   13   14 am
    25   13   32 1
    26   14   15 2
    27   14   16 am
    28   16   33 1
    29   16   34 1
    30   17   19 1
    31   17   18 1
    32   17   20 1
    33   18   19 2
    34   18   35 1
    35   20   21 1
    36   20   22 1
    37   20   23 1
@<TRIPOS>MOLECULE
CHEMBL251142
   67    71     0     0     0
SMALL
USER_CHARGES

@<TRIPOS>ATOM
      1 C1         -0.8308    1.3319   -0.1978 C.3       1 <0>        -0.1999
      2 C2         -0.5252   -0.1437   -0.1877 C.2       1 <0>         0.4332
      3 O1         -0.5357   -0.7591    0.8597 O.2       1 <0>        -0.4509
      4 C3         -0.2275   -0.8090   -1.3917 C.2       1 <0>        -0.0886
      5 N1         -0.2707   -0.2862   -2.5847 N.2       1 <0>        -0.1184
      6 N2          0.0966   -1.0421   -3.5359 N.pl3     1 <0>        -0.3738
      7 C4          0.4500   -0.7197   -4.8510 C.ar      1 <0>         0.1243
      8 C5          0.0062    0.4361   -5.4638 C.ar      1 <0>        -0.1305
      9 C6          0.3922    0.7131   -6.7653 C.ar      1 <0>         0.1017
     10 C7          1.2192   -0.1682   -7.4420 C.ar      1 <0>        -0.1221
     11 C8          1.6605   -1.3268   -6.8319 C.ar      1 <0>        -0.0886
     12 C9          1.2783   -1.6178   -5.5308 C.ar      1 <0>         0.0978
     13 O2          1.6967   -2.7676   -4.9426 O.3       1 <0>        -0.3038
     14 C10         1.6262   -2.9021   -3.5200 C.3       1 <0>         0.0593
     15 C11         0.2425   -2.4388   -3.0527 C.3       1 <0>         0.0448
     16 H1         -0.5516   -3.0886   -3.4203 H         1 <0>         0.1213
     17 C12         0.2061   -2.2587   -1.5249 C.3       1 <0>         0.0175
     18 C13        -0.8216   -3.1975   -0.8899 C.3       1 <0>        -0.0976
     19 C14        -2.2027   -2.9212   -1.4875 C.3       1 <0>        -0.1554
     20 C15        -3.2214   -3.8931   -0.8887 C.3       1 <0>        -0.0132
     21 N3         -4.5364   -3.6635   -1.5018 N.4       1 <0>        -0.3796
     22 C16        -5.5316   -4.4049   -0.7442 C.3       1 <0>        -0.0053
     23 C17        -6.9483   -4.0082   -1.1691 C.3       1 <0>        -0.1604
     24 C18        -7.3293   -4.8321   -2.3828 C.2       1 <0>         0.5007
     25 O3         -8.1775   -5.6941   -2.2909 O.2       1 <0>        -0.5017
     26 N4         -6.7283   -4.6058   -3.5545 N.am      1 <0>        -0.6191
     27 C19        -5.7028   -3.5538   -3.6660 C.3       1 <0>         0.0929
     28 C20        -4.4531   -4.0134   -2.9105 C.3       1 <0>        -0.0429
     29 C21        -7.0896   -5.4035   -4.7290 C.3       1 <0>         0.0689
     30 C22         1.5710   -2.4704   -0.9222 C.ar      1 <0>        -0.0838
     31 C23         2.3085   -1.3866   -0.4835 C.ar      1 <0>        -0.1003
     32 C24         3.5605   -1.5808    0.0693 C.ar      1 <0>        -0.1096
     33 C25         4.0748   -2.8588    0.1839 C.ar      1 <0>        -0.1064
     34 C26         3.3370   -3.9426   -0.2540 C.ar      1 <0>        -0.1111
     35 C27         2.0831   -3.7488   -0.8029 C.ar      1 <0>        -0.1181
     36 F1         -0.0376    1.8404   -7.3733 F         1 <0>        -0.1263
     37 H2          0.0932    1.8953   -0.0682 H         1 <0>         0.1004
     38 H3         -1.2903    1.6013   -1.1488 H         1 <0>         0.0889
     39 H4         -1.5166    1.5665    0.6164 H         1 <0>         0.0910
     40 H5         -0.6384    1.1198   -4.9314 H         1 <0>         0.1514
     41 H6          1.5213    0.0518   -8.4553 H         1 <0>         0.1536
     42 H7          2.3048   -2.0070   -7.3692 H         1 <0>         0.1555
     43 H8          1.7753   -3.9458   -3.2433 H         1 <0>         0.1292
     44 H9          2.3950   -2.2845   -3.0555 H         1 <0>         0.0857
     45 H10        -0.5403   -4.2318   -1.0881 H         1 <0>         0.0865
     46 H11        -0.8513   -3.0291    0.1866 H         1 <0>         0.1072
     47 H12        -2.4993   -1.8975   -1.2589 H         1 <0>         0.0921
     48 H13        -2.1643   -3.0555   -2.5685 H         1 <0>         0.0836
     49 H14        -2.9038   -4.9175   -1.0829 H         1 <0>         0.1348
     50 H15        -3.2889   -3.7314    0.1872 H         1 <0>         0.1411
     51 H16        -5.3914   -5.4720   -0.9166 H         1 <0>         0.1338
     52 H17        -5.4037   -4.1943    0.3176 H         1 <0>         0.1503
     53 H18        -7.6455   -4.2084   -0.3555 H         1 <0>         0.1463
     54 H19        -6.9727   -2.9482   -1.4221 H         1 <0>         0.1121
     55 H20        -5.4575   -3.3910   -4.7155 H         1 <0>         0.1341
     56 H21        -6.0772   -2.6292   -3.2266 H         1 <0>         0.0982
     57 H22        -3.5756   -3.5358   -3.3465 H         1 <0>         0.1458
     58 H23        -4.3550   -5.0948   -3.0054 H         1 <0>         0.1376
     59 H24        -7.8591   -6.1253   -4.4552 H         1 <0>         0.0972
     60 H25        -7.4695   -4.7467   -5.5115 H         1 <0>         0.0733
     61 H26        -6.2090   -5.9321   -5.0940 H         1 <0>         0.0696
     62 H27         1.9066   -0.3882   -0.5730 H         1 <0>         0.1162
     63 H28         4.1370   -0.7340    0.4114 H         1 <0>         0.1279
     64 H29         5.0533   -3.0104    0.6151 H         1 <0>         0.1291
     65 H30         3.7389   -4.9411   -0.1648 H         1 <0>         0.1295
     66 H31         1.5051   -4.5959   -1.1416 H         1 <0>         0.1230
     67 H32        -4.7523   -2.6805   -1.4302 H         1 <0>         0.4205
@<TRIPOS>BOND
     1    1    2 1
     2    1   37 1
     3    1   38 1
     4    1   39 1
     5    2    3 2
     6    2    4 1
     7    4   17 1
     8    4    5 2
     9    5    6 1
    10    6   15 1
    11    6    7 1
    12    7   12 ar
    13    7    8 ar
    14    8    9 ar
    15    8   40 1
    16    9   10 ar
    17    9   36 1
    18   10   11 ar
    19   10   41 1
    20   11   12 ar
    21   11   42 1
    22   12   13 1
    23   13   14 1
    24   14   15 1
    25   14   43 1
    26   14   44 1
    27   15   16 1
    28   15   17 1
    29   17   18 1
    30   17   30 1
    31   18   19 1
    32   18   45 1
    33   18   46 1
    34   19   20 1
    35   19   47 1
    36   19   48 1
    37   20   21 1
    38   20   49 1
    39   20   50 1
    40   21   28 1
    41   21   22 1
    42   21   67 1
    43   22   23 1
    44   22   51 1
    45   22   52 1
    46   23   24 1
    47   23   53 1
    48   23   54 1
    49   24   25 2
    50   24   26 am
    51   26   27 1
    52   26   29 1
    53   27   28 1
    54   27   55 1
    55   27   56 1
    56   28   57 1
    57   28   58 1
    58   29   59 1
    59   29   60 1
    60   29   61 1
    61   30   35 ar
    62   30   31 ar
    63   31   32 ar
    64   31   62 1
    65   32   33 ar
    66   32   63 1
    67   33   34 ar
    68   33   64 1
    69   34   35 ar
    70   34   65 1
    71   35   66 1
@<TRIPOS>MOLECULE
CHEMBL438876
   64    68     0     0     0
SMALL
USER_CHARGES

@<TRIPOS>ATOM
      1 C1         -0.2232    1.3347    0.8234 C.3       1 <0>        -0.1977
      2 C2         -0.1850   -0.1431    0.5304 C.2       1 <0>         0.4328
      3 O1          0.8739   -0.7384    0.5466 O.2       1 <0>        -0.4497
      4 C3         -1.3761   -0.8335    0.2380 C.2       1 <0>        -0.0892
      5 N1         -2.5789   -0.3332    0.2770 N.2       1 <0>        -0.1183
      6 N2         -3.5154   -1.1101   -0.0842 N.pl3     1 <0>        -0.3739
      7 C4         -4.8364   -0.8156   -0.4403 C.ar      1 <0>         0.1243
      8 C5         -5.4711    0.3318   -0.0058 C.ar      1 <0>        -0.1305
      9 C6         -6.7776    0.5808   -0.3941 C.ar      1 <0>         0.1017
     10 C7         -7.4372   -0.3199   -1.2139 C.ar      1 <0>        -0.1221
     11 C8         -6.8050   -1.4701   -1.6459 C.ar      1 <0>        -0.0886
     12 C9         -5.4987   -1.7332   -1.2613 C.ar      1 <0>         0.0978
     13 O2         -4.8886   -2.8749   -1.6704 O.3       1 <0>        -0.3038
     14 C10        -3.4637   -2.9817   -1.5988 C.3       1 <0>         0.0593
     15 C11        -3.0056   -2.4984   -0.2189 C.3       1 <0>         0.0447
     16 H1         -3.3609   -3.1487    0.5805 H         1 <0>         0.1213
     17 C12        -1.4816   -2.2890   -0.1838 C.3       1 <0>         0.0176
     18 C13        -0.8289   -3.2072    0.8514 C.3       1 <0>        -0.0977
     19 C14        -1.4320   -2.9311    2.2302 C.3       1 <0>        -0.1554
     20 C15        -0.8149   -3.8832    3.2567 C.3       1 <0>        -0.0135
     21 N3         -1.4326   -3.6547    4.5698 N.4       1 <0>        -0.3796
     22 C16        -0.6612   -4.3735    5.5710 C.3       1 <0>        -0.0059
     23 C17        -1.0938   -3.9736    6.9844 C.3       1 <0>        -0.1622
     24 C18        -2.2917   -4.8174    7.3720 C.2       1 <0>         0.5044
     25 O3         -2.1835   -5.6706    8.2271 O.2       1 <0>        -0.5014
     26 N4         -3.4674   -4.6183    6.7692 N.am      1 <0>        -0.7303
     27 C19        -3.5984   -3.5775    5.7345 C.3       1 <0>         0.0915
     28 C20        -2.8343   -4.0321    4.4893 C.3       1 <0>        -0.0453
     29 C21        -0.8747   -2.5001   -1.5470 C.ar      1 <0>        -0.0840
     30 C22        -0.4566   -1.4142   -2.2932 C.ar      1 <0>        -0.1002
     31 C23         0.1001   -1.6079   -3.5435 C.ar      1 <0>        -0.1096
     32 C24         0.2391   -2.8875   -4.0476 C.ar      1 <0>        -0.1064
     33 C25        -0.1782   -3.9735   -3.3010 C.ar      1 <0>        -0.1111
     34 C26        -0.7310   -3.7801   -2.0488 C.ar      1 <0>        -0.1182
     35 F1         -7.4071    1.6998    0.0265 F         1 <0>        -0.1263
     36 H2          0.7869    1.6913    1.0251 H         1 <0>         0.0892
     37 H3         -0.6307    1.8653   -0.0372 H         1 <0>         0.0954
     38 H4         -0.8533    1.5163    1.6940 H         1 <0>         0.0935
     39 H5         -4.9520    1.0307    0.6333 H         1 <0>         0.1515
     40 H6         -8.4544   -0.1216   -1.5179 H         1 <0>         0.1536
     41 H7         -7.3291   -2.1656   -2.2847 H         1 <0>         0.1555
     42 H8         -3.1672   -4.0211   -1.7395 H         1 <0>         0.1292
     43 H9         -3.0110   -2.3615   -2.3725 H         1 <0>         0.0857
     44 H10        -1.0074   -4.2473    0.5784 H         1 <0>         0.0866
     45 H11         0.2442   -3.0180    0.8797 H         1 <0>         0.1072
     46 H12        -1.2230   -1.9009    2.5185 H         1 <0>         0.0918
     47 H13        -2.5102   -3.0864    2.1929 H         1 <0>         0.0838
     48 H14        -0.9895   -4.9137    2.9474 H         1 <0>         0.1351
     49 H15         0.2576   -3.7005    3.3230 H         1 <0>         0.1410
     50 H16        -0.8131   -5.4448    5.4394 H         1 <0>         0.1344
     51 H17         0.3964   -4.1438    5.4415 H         1 <0>         0.1504
     52 H18        -0.2767   -4.1526    7.6832 H         1 <0>         0.1464
     53 H19        -1.3670   -2.9185    7.0002 H         1 <0>         0.1128
     54 H20        -4.2348   -5.1593    7.0126 H         1 <0>         0.4192
     55 H21        -4.6507   -3.4372    5.4873 H         1 <0>         0.1354
     56 H22        -3.1772   -2.6415    6.1011 H         1 <0>         0.0978
     57 H23        -3.2792   -3.5700    3.6080 H         1 <0>         0.1458
     58 H24        -2.9086   -5.1159    4.3999 H         1 <0>         0.1386
     59 H25        -0.5652   -0.4144   -1.8994 H         1 <0>         0.1162
     60 H26         0.4261   -0.7594   -4.1268 H         1 <0>         0.1279
     61 H27         0.6733   -3.0388   -5.0248 H         1 <0>         0.1291
     62 H28        -0.0699   -4.9733   -3.6949 H         1 <0>         0.1295
     63 H29        -1.0535   -4.6288   -1.4640 H         1 <0>         0.1230
     64 H30        -1.3797   -2.6688    4.7778 H         1 <0>         0.4205
@<TRIPOS>BOND
     1    1    2 1
     2    1   36 1
     3    1   37 1
     4    1   38 1
     5    2    3 2
     6    2    4 1
     7    4   17 1
     8    4    5 2
     9    5    6 1
    10    6   15 1
    11    6    7 1
    12    7   12 ar
    13    7    8 ar
    14    8    9 ar
    15    8   39 1
    16    9   10 ar
    17    9   35 1
    18   10   11 ar
    19   10   40 1
    20   11   12 ar
    21   11   41 1
    22   12   13 1
    23   13   14 1
    24   14   15 1
    25   14   42 1
    26   14   43 1
    27   15   16 1
    28   15   17 1
    29   17   18 1
    30   17   29 1
    31   18   19 1
    32   18   44 1
    33   18   45 1
    34   19   20 1
    35   19   46 1
    36   19   47 1
    37   20   21 1
    38   20   48 1
    39   20   49 1
    40   21   28 1
    41   21   22 1
    42   21   64 1
    43   22   23 1
    44   22   50 1
    45   22   51 1
    46   23   24 1
    47   23   52 1
    48   23   53 1
    49   24   25 2
    50   24   26 am
    51   26   27 1
    52   26   54 1
    53   27   28 1
    54   27   55 1
    55   27   56 1
    56   28   57 1
    57   28   58 1
    58   29   34 ar
    59   29   30 ar
    60   30   31 ar
    61   30   59 1
    62   31   32 ar
    63   31   60 1
    64   32   33 ar
    65   32   61 1
    66   33   34 ar
    67   33   62 1
    68   34   63 1
@<TRIPOS>MOLECULE
CHEMBL401476
   62    66     0     0     0
SMALL
USER_CHARGES

@<TRIPOS>ATOM
      1 C1          0.8023    1.1630    1.1130 C.3       1 <0>        -0.1956
      2 C2          0.5464   -0.2769    0.7495 C.2       1 <0>         0.4328
      3 O1          1.4603   -1.0773    0.7587 O.2       1 <0>        -0.4483
      4 C3         -0.7513   -0.6944    0.3995 C.2       1 <0>        -0.0746
      5 N1         -1.8210    0.0500    0.4042 N.2       1 <0>        -0.1253
      6 N2         -2.8858   -0.5054   -0.0070 N.pl3     1 <0>        -0.3776
      7 C4         -4.0987    0.0677   -0.4054 C.ar      1 <0>         0.1313
      8 C5         -4.4925    1.3187    0.0286 C.ar      1 <0>        -0.1326
      9 C6         -5.6996    1.8448   -0.4025 C.ar      1 <0>         0.1001
     10 C7         -6.5017    1.1151   -1.2643 C.ar      1 <0>        -0.1263
     11 C8         -6.1111   -0.1381   -1.6959 C.ar      1 <0>        -0.0896
     12 C9         -4.9070   -0.6778   -1.2688 C.ar      1 <0>         0.0959
     13 O2         -4.5371   -1.9182   -1.6783 O.3       1 <0>        -0.3053
     14 C10        -3.1714   -2.3267   -1.5564 C.3       1 <0>         0.0592
     15 C11        -2.6772   -1.9687   -0.1510 C.3       1 <0>         0.0485
     16 H1         -3.1944   -2.5380    0.6214 H         1 <0>         0.1216
     17 C12        -1.1462   -2.0889   -0.0555 C.3       1 <0>         0.0156
     18 C13        -0.7456   -3.1374    0.9843 C.3       1 <0>        -0.1007
     19 C14        -1.3524   -2.7693    2.3397 C.3       1 <0>        -0.1188
     20 C15        -0.8501   -3.7456    3.4053 C.3       1 <0>         0.0571
     21 N3         -1.4327   -3.3922    4.7067 N.3       1 <0>        -0.5393
     22 C16        -2.8876   -3.6009    4.7067 C.3       1 <0>         0.0193
     23 C17        -3.4623   -3.1660    6.0566 C.3       1 <0>        -0.0030
     24 N4         -2.8379   -3.9501    7.1303 N.4       1 <0>        -0.5079
     25 C18        -1.3885   -3.7121    7.1333 C.3       1 <0>        -0.0028
     26 C19        -0.7965   -4.1516    5.7923 C.3       1 <0>         0.0235
     27 C20        -0.5434   -2.4080   -1.3993 C.ar      1 <0>        -0.0786
     28 C21         0.1391   -1.4313   -2.1002 C.ar      1 <0>        -0.1010
     29 C22         0.6920   -1.7240   -3.3329 C.ar      1 <0>        -0.1108
     30 C23         0.5627   -2.9935   -3.8645 C.ar      1 <0>        -0.1101
     31 C24        -0.1190   -3.9704   -3.1632 C.ar      1 <0>        -0.1124
     32 C25        -0.6682   -3.6789   -1.9286 C.ar      1 <0>        -0.1182
     33 F1         -6.0937    3.0669    0.0173 F         1 <0>        -0.1282
     34 H2          1.8574    1.2953    1.3527 H         1 <0>         0.0875
     35 H3          0.5380    1.8028    0.2710 H         1 <0>         0.0938
     36 H4          0.1966    1.4325    1.9782 H         1 <0>         0.0928
     37 H5         -3.8630    1.8834    0.7004 H         1 <0>         0.1508
     38 H6         -7.4405    1.5290   -1.6014 H         1 <0>         0.1518
     39 H7         -6.7447   -0.6983   -2.3676 H         1 <0>         0.1540
     40 H8         -3.0968   -3.4037   -1.7071 H         1 <0>         0.1281
     41 H9         -2.5666   -1.8079   -2.3001 H         1 <0>         0.0844
     42 H10        -1.1142   -4.1154    0.6747 H         1 <0>         0.0751
     43 H11         0.3407   -3.1686    1.0689 H         1 <0>         0.0972
     44 H12        -1.0556   -1.7552    2.6073 H         1 <0>         0.0780
     45 H13        -2.4392   -2.8257    2.2786 H         1 <0>         0.0594
     46 H14        -1.1469   -4.7597    3.1378 H         1 <0>         0.0488
     47 H15         0.2367   -3.6892    3.4664 H         1 <0>         0.0931
     48 H16        -3.3399   -3.0089    3.9110 H         1 <0>         0.1214
     49 H17        -3.1035   -4.6567    4.5426 H         1 <0>         0.0617
     50 H18        -3.2581   -2.1070    6.2141 H         1 <0>         0.1394
     51 H19        -4.5394   -3.3333    6.0637 H         1 <0>         0.1382
     52 H20        -3.2261   -3.6717    8.0191 H         1 <0>         0.4346
     53 H21        -1.1949   -2.6503    7.2853 H         1 <0>         0.1399
     54 H22        -0.9280   -4.2843    7.9387 H         1 <0>         0.1394
     55 H23        -0.9779   -5.2164    5.6462 H         1 <0>         0.0615
     56 H24         0.2768   -3.9614    5.7888 H         1 <0>         0.1247
     57 H25         0.2401   -0.4395   -1.6848 H         1 <0>         0.1158
     58 H26         1.2246   -0.9608   -3.8808 H         1 <0>         0.1266
     59 H27         0.9941   -3.2220   -4.8279 H         1 <0>         0.1275
     60 H28        -0.2203   -4.9621   -3.5787 H         1 <0>         0.1279
     61 H29        -1.1976   -4.4431   -1.3790 H         1 <0>         0.1227
     62 H30        -3.0172   -4.9312    6.9779 H         1 <0>         0.4260
@<TRIPOS>BOND
     1    1    2 1
     2    1   34 1
     3    1   35 1
     4    1   36 1
     5    2    3 2
     6    2    4 1
     7    4   17 1
     8    4    5 2
     9    5    6 1
    10    6   15 1
    11    6    7 1
    12    7   12 ar
    13    7    8 ar
    14    8    9 ar
    15    8   37 1
    16    9   10 ar
    17    9   33 1
    18   10   11 ar
    19   10   38 1
    20   11   12 ar
    21   11   39 1
    22   12   13 1
    23   13   14 1
    24   14   15 1
    25   14   40 1
    26   14   41 1
    27   15   16 1
    28   15   17 1
    29   17   18 1
    30   17   27 1
    31   18   19 1
    32   18   42 1
    33   18   43 1
    34   19   20 1
    35   19   44 1
    36   19   45 1
    37   20   21 1
    38   20   46 1
    39   20   47 1
    40   21   26 1
    41   21   22 1
    42   22   23 1
    43   22   48 1
    44   22   49 1
    45   23   24 1
    46   23   50 1
    47   23   51 1
    48   24   25 1
    49   24   52 1
    50   24   62 1
    51   25   26 1
    52   25   53 1
    53   25   54 1
    54   26   55 1
    55   26   56 1
    56   27   32 ar
    57   27   28 ar
    58   28   29 ar
    59   28   57 1
    60   29   30 ar
    61   29   58 1
    62   30   31 ar
    63   30   59 1
    64   31   32 ar
    65   31   60 1
    66   32   61 1
@<TRIPOS>MOLECULE
CHEMBL1164373
   47    51     0     0     0
SMALL
USER_CHARGES

@<TRIPOS>ATOM
      1 C1         -0.4258    0.9904   -0.9017 C.3       1 <0>        -0.1103
      2 C2         -0.1444   -0.4693   -0.6543 C.ar      1 <0>        -0.1116
      3 C3          0.1683   -1.3006   -1.7213 C.ar      1 <0>        -0.0962
      4 C4          0.4292   -2.6374   -1.5164 C.ar      1 <0>        -0.1252
      5 C5          0.3795   -3.1625   -0.2293 C.ar      1 <0>         0.0980
      6 C6          0.0618   -2.3158    0.8500 C.ar      1 <0>        -0.0930
      7 C7         -0.1936   -0.9624    0.6186 C.ar      1 <0>        -0.0718
      8 C8          0.0910   -3.1591    2.0417 C.2       1 <0>        -0.1561
      9 C9          0.4102   -4.4048    1.6412 C.2       1 <0>         0.0725
     10 N1          0.5841   -4.4236    0.2871 N.pl3     1 <0>        -0.5782
     11 H1          0.8167   -5.2081   -0.2339 H         1 <0>         0.4128
     12 C10         0.5489   -5.5753    2.5901 C.3       1 <0>         0.2864
     13 N2          0.0093   -5.1521    3.8938 N.am      1 <0>        -0.6053
     14 C11         0.3811   -3.8247    4.4062 C.3       1 <0>         0.1042
     15 C12        -0.1829   -2.7517    3.4662 C.3       1 <0>        -0.0595
     16 C13        -0.8055   -5.9612    4.5994 C.2       1 <0>         0.5229
     17 O1         -1.3128   -5.5643    5.6270 O.2       1 <0>        -0.5362
     18 C14        -1.0863   -7.3591    4.1114 C.3       1 <0>        -0.1778
     19 C15         2.0018   -5.9487    2.7340 C.2       1 <0>        -0.1941
     20 C16         2.8097   -5.6329    3.7584 C.2       1 <0>         0.0807
     21 N3          4.0605   -6.1436    3.5408 N.pl3     1 <0>        -0.5913
     22 H2          4.8149   -6.0453    4.1426 H         1 <0>         0.4192
     23 C17         4.0886   -6.8176    2.3405 C.ar      1 <0>         0.0980
     24 C18         2.7986   -6.7305    1.7854 C.ar      1 <0>        -0.0912
     25 C19         2.5268   -7.3350    0.5569 C.ar      1 <0>        -0.0820
     26 C20         3.5157   -8.0124   -0.0995 C.ar      1 <0>        -0.1371
     27 C21         4.7887   -8.1046    0.4457 C.ar      1 <0>        -0.0981
     28 C22         5.0812   -7.5075    1.6527 C.ar      1 <0>        -0.1237
     29 H3          0.5044    1.5552   -0.8403 H         1 <0>         0.0669
     30 H4         -0.8609    1.1136   -1.8935 H         1 <0>         0.0644
     31 H5         -1.1245    1.3582   -0.1502 H         1 <0>         0.0640
     32 H6          0.2070   -0.8953   -2.7217 H         1 <0>         0.1252
     33 H7          0.6714   -3.2762   -2.3528 H         1 <0>         0.1202
     34 H8         -0.4330   -0.3079    1.4437 H         1 <0>         0.1203
     35 H9         -0.0178   -6.4268    2.2134 H         1 <0>         0.1118
     36 H10        -0.0342   -3.6896    5.4049 H         1 <0>         0.1018
     37 H11         1.4671   -3.7402    4.4465 H         1 <0>         0.0735
     38 H12         0.2995   -1.7961    3.6718 H         1 <0>         0.0839
     39 H13        -1.2581   -2.6605    3.6196 H         1 <0>         0.0771
     40 H14        -0.2940   -8.0275    4.4483 H         1 <0>         0.0968
     41 H15        -2.0421   -7.6982    4.5109 H         1 <0>         0.0959
     42 H16        -1.1260   -7.3626    3.0221 H         1 <0>         0.0815
     43 H17         2.5162   -5.0603    4.6257 H         1 <0>         0.1723
     44 H18         1.5384   -7.2680    0.1268 H         1 <0>         0.1147
     45 H19         3.3049   -8.4799   -1.0500 H         1 <0>         0.1245
     46 H20         5.5596   -8.6439   -0.0846 H         1 <0>         0.1273
     47 H21         6.0745   -7.5860    2.0693 H         1 <0>         0.1219
@<TRIPOS>BOND
     1    1    2 1
     2    1   29 1
     3    1   30 1
     4    1   31 1
     5    2    7 ar
     6    2    3 ar
     7    3    4 ar
     8    3   32 1
     9    4    5 ar
    10    4   33 1
    11    5   10 1
    12    5    6 ar
    13    6    7 ar
    14    6    8 1
    15    7   34 1
    16    8   15 1
    17    8    9 2
    18    9   10 1
    19    9   12 1
    20   10   11 1
    21   12   13 1
    22   12   19 1
    23   12   35 1
    24   13   14 1
    25   13   16 am
    26   14   15 1
    27   14   36 1
    28   14   37 1
    29   15   38 1
    30   15   39 1
    31   16   17 2
    32   16   18 1
    33   18   40 1
    34   18   41 1
    35   18   42 1
    36   19   24 1
    37   19   20 2
    38   20   21 1
    39   20   43 1
    40   21   22 1
    41   21   23 1
    42   23   28 ar
    43   23   24 ar
    44   24   25 ar
    45   25   26 ar
    46   25   44 1
    47   26   27 ar
    48   26   45 1
    49   27   28 ar
    50   27   46 1
    51   28   47 1
@<TRIPOS>MOLECULE
CHEMBL1164373__1
   47    51     0     0     0
SMALL
USER_CHARGES

@<TRIPOS>ATOM
      1 C1         -0.9490    1.7680    0.5052 C.3       1 <0>        -0.1103
      2 C2         -0.5580    0.3209    0.3500 C.ar      1 <0>        -0.1115
      3 C3         -0.1519   -0.1533   -0.8899 C.ar      1 <0>        -0.0963
      4 C4          0.2090   -1.4726   -1.0528 C.ar      1 <0>        -0.1251
      5 C5          0.1679   -2.3402    0.0336 C.ar      1 <0>         0.0979
      6 C6         -0.2440   -1.8549    1.2895 C.ar      1 <0>        -0.0929
      7 C7         -0.6008   -0.5120    1.4318 C.ar      1 <0>        -0.0719
      8 C8         -0.1770   -2.9944    2.2002 C.2       1 <0>        -0.1568
      9 C9          0.2474   -4.0530    1.4837 C.2       1 <0>         0.0733
     10 N1          0.4594   -3.6782    0.1881 N.pl3     1 <0>        -0.5783
     11 H1          0.7689   -4.2662   -0.5185 H         1 <0>         0.4128
     12 C10         0.4399   -5.4340    2.0718 C.3       1 <0>         0.2871
     13 N2          0.3575   -5.3044    3.5369 N.am      1 <0>        -0.6057
     14 C11        -0.7164   -4.4762    4.1057 C.3       1 <0>         0.1039
     15 C12        -0.5069   -3.0205    3.6700 C.3       1 <0>        -0.0595
     16 C13         1.2441   -5.9299    4.3363 C.2       1 <0>         0.5238
     17 O1          1.1110   -5.8855    5.5410 O.2       1 <0>        -0.5366
     18 C14         2.4010   -6.6843    3.7333 C.3       1 <0>        -0.1805
     19 C15        -0.6440   -6.3569    1.5774 C.2       1 <0>        -0.1961
     20 C16        -1.7357   -6.7425    2.2567 C.2       1 <0>         0.0822
     21 N3         -2.4920   -7.5831    1.4862 N.pl3     1 <0>        -0.5911
     22 H2         -3.3276   -7.9911    1.7620 H         1 <0>         0.4193
     23 C17        -1.8901   -7.7636    0.2610 C.ar      1 <0>         0.0979
     24 C18        -0.7093   -6.9984    0.2621 C.ar      1 <0>        -0.0910
     25 C19         0.1125   -6.9841   -0.8663 C.ar      1 <0>        -0.0823
     26 C20        -0.2367   -7.7119   -1.9690 C.ar      1 <0>        -0.1369
     27 C21        -1.4024   -8.4650   -1.9766 C.ar      1 <0>        -0.0983
     28 C22        -2.2233   -8.5007   -0.8703 C.ar      1 <0>        -0.1234
     29 H3         -0.0690    2.3562    0.7654 H         1 <0>         0.0672
     30 H4         -1.3664    2.1342   -0.4328 H         1 <0>         0.0642
     31 H5         -1.6943    1.8603    1.2951 H         1 <0>         0.0638
     32 H6         -0.1190    0.5184   -1.7350 H         1 <0>         0.1251
     33 H7          0.5228   -1.8324   -2.0215 H         1 <0>         0.1202
     34 H8         -0.9136   -0.1341    2.3940 H         1 <0>         0.1203
     35 H9          1.4175   -5.8242    1.7888 H         1 <0>         0.1115
     36 H10        -1.6814   -4.8303    3.7430 H         1 <0>         0.0732
     37 H11        -0.6884   -4.5391    5.1936 H         1 <0>         0.1023
     38 H12         0.3159   -2.5845    4.2367 H         1 <0>         0.0765
     39 H13        -1.4186   -2.4507    3.8498 H         1 <0>         0.0844
     40 H14         3.2213   -5.9943    3.5358 H         1 <0>         0.0962
     41 H15         2.7339   -7.4551    4.4284 H         1 <0>         0.0964
     42 H16         2.0844   -7.1492    2.7996 H         1 <0>         0.0837
     43 H17        -1.9806   -6.4350    3.2627 H         1 <0>         0.1726
     44 H18         1.0207   -6.3998   -0.8678 H         1 <0>         0.1145
     45 H19         0.3994   -7.7005   -2.8418 H         1 <0>         0.1245
     46 H20        -1.6653   -9.0344   -2.8558 H         1 <0>         0.1274
     47 H21        -3.1289   -9.0889   -0.8865 H         1 <0>         0.1220
@<TRIPOS>BOND
     1    1    2 1
     2    1   29 1
     3    1   30 1
     4    1   31 1
     5    2    7 ar
     6    2    3 ar
     7    3    4 ar
     8    3   32 1
     9    4    5 ar
    10    4   33 1
    11    5   10 1
    12    5    6 ar
    13    6    7 ar
    14    6    8 1
    15    7   34 1
    16    8   15 1
    17    8    9 2
    18    9   10 1
    19    9   12 1
    20   10   11 1
    21   12   13 1
    22   12   19 1
    23   12   35 1
    24   13   14 1
    25   13   16 am
    26   14   15 1
    27   14   36 1
    28   14   37 1
    29   15   38 1
    30   15   39 1
    31   16   17 2
    32   16   18 1
    33   18   40 1
    34   18   41 1
    35   18   42 1
    36   19   24 1
    37   19   20 2
    38   20   21 1
    39   20   43 1
    40   21   22 1
    41   21   23 1
    42   23   28 ar
    43   23   24 ar
    44   24   25 ar
    45   25   26 ar
    46   25   44 1
    47   26   27 ar
    48   26   45 1
    49   27   28 ar
    50   27   46 1
    51   28   47 1
@<TRIPOS>MOLECULE
CHEMBL1164552
   71    74     0     0     0
SMALL
USER_CHARGES

@<TRIPOS>ATOM
      1 C1          0.7948   -0.2014    1.1690 C.3       1 <0>        -0.1608
      2 C2          0.1216   -1.1795    0.2042 C.3       1 <0>        -0.1388
      3 C3          0.4386   -0.7741   -1.2367 C.3       1 <0>         0.1817
      4 C4         -0.3361   -1.6503   -2.1870 C.2       1 <0>         0.3923
      5 N1          0.2060   -2.7627   -2.5802 N.2       1 <0>        -0.5169
      6 C5         -0.4321   -3.6015   -3.4341 C.ar      1 <0>         0.1638
      7 C6          0.1486   -4.7982   -3.8578 C.ar      1 <0>        -0.1060
      8 C7         -0.5403   -5.6175   -4.7264 C.ar      1 <0>         0.0116
      9 C8         -1.8045   -5.2657   -5.1848 C.ar      1 <0>        -0.1262
     10 C9         -2.3926   -4.0983   -4.7836 C.ar      1 <0>        -0.0223
     11 C10        -1.7177   -3.2529   -3.9052 C.ar      1 <0>        -0.1923
     12 C11        -2.3025   -1.9868   -3.4405 C.2       1 <0>         0.5515
     13 O1         -3.4061   -1.6276   -3.8076 O.2       1 <0>        -0.4868
     14 N2         -1.5684   -1.2386   -2.5842 N.am      1 <0>        -0.5313
     15 C12        -2.1052    0.0300   -2.0856 C.3       1 <0>         0.1309
     16 C13        -1.9373    1.0951   -3.1385 C.ar      1 <0>        -0.1352
     17 C14        -0.8615    1.9611   -3.0802 C.ar      1 <0>        -0.0979
     18 C15        -0.7075    2.9380   -4.0460 C.ar      1 <0>        -0.1189
     19 C16        -1.6290    3.0486   -5.0704 C.ar      1 <0>        -0.1035
     20 C17        -2.7044    2.1820   -5.1292 C.ar      1 <0>        -0.1233
     21 C18        -2.8561    1.2023   -4.1658 C.ar      1 <0>        -0.0904
     22 Cl1         0.1800   -7.1062   -5.2546 Cl        1 <0>        -0.0455
     23 N3          1.8735   -0.9341   -1.4846 N.am      1 <0>        -0.5850
     24 C19         2.5348   -2.2023   -1.1673 C.3       1 <0>         0.0917
     25 C20         2.8790   -2.2391    0.3230 C.3       1 <0>        -0.1973
     26 C21         3.7521   -3.4612    0.6147 C.3       1 <0>        -0.0138
     27 N4          4.0826   -3.4966    2.0456 N.4       1 <0>        -0.3865
     28 C22         2.8553   -3.7004    2.8267 C.3       1 <0>        -0.0546
     29 C23         5.0172   -4.5998    2.3052 C.3       1 <0>        -0.0485
     30 C24         2.5853    0.0855   -2.0045 C.2       1 <0>         0.5651
     31 O2          2.0835    1.1881   -2.1049 O.2       1 <0>        -0.5029
     32 C25         3.9761   -0.1371   -2.4526 C.ar      1 <0>        -0.1114
     33 C26         4.8832   -0.7969   -1.6214 C.ar      1 <0>        -0.1031
     34 C27         6.1795   -1.0015   -2.0452 C.ar      1 <0>        -0.0984
     35 C28         6.5820   -0.5541   -3.2923 C.ar      1 <0>        -0.0690
     36 C29         5.6869    0.1009   -4.1213 C.ar      1 <0>        -0.0848
     37 C30         4.3864    0.3065   -3.7112 C.ar      1 <0>        -0.0556
     38 Br1         8.3616   -0.8383   -3.8654 Br        1 <0>        -0.0276
     39 H1          1.8736   -0.2230    1.0144 H         1 <0>         0.0598
     40 H2          0.4214    0.8059    0.9845 H         1 <0>         0.0694
     41 H3          0.5690   -0.4902    2.1955 H         1 <0>         0.0672
     42 H4          0.4950   -2.1868    0.3887 H         1 <0>         0.0840
     43 H5         -0.9571   -1.1579    0.3588 H         1 <0>         0.0882
     44 H6          0.1570    0.2675   -1.3913 H         1 <0>         0.1364
     45 H7          1.1307   -5.0800   -3.5079 H         1 <0>         0.1477
     46 H8         -2.3277   -5.9212   -5.8652 H         1 <0>         0.1483
     47 H9         -3.3752   -3.8333   -5.1449 H         1 <0>         0.1507
     48 H10        -3.1638   -0.0890   -1.8548 H         1 <0>         0.1117
     49 H11        -1.5674    0.3227   -1.1838 H         1 <0>         0.1031
     50 H12        -0.1414    1.8747   -2.2799 H         1 <0>         0.1287
     51 H13         0.1327    3.6151   -4.0001 H         1 <0>         0.1257
     52 H14        -1.5091    3.8123   -5.8246 H         1 <0>         0.1256
     53 H15        -3.4246    2.2686   -5.9293 H         1 <0>         0.1261
     54 H16        -3.6942    0.5228   -4.2138 H         1 <0>         0.1359
     55 H17         1.8672   -3.0300   -1.4066 H         1 <0>         0.1275
     56 H18         3.4492   -2.2919   -1.7537 H         1 <0>         0.1016
     57 H19         3.4207   -1.3327    0.5933 H         1 <0>         0.0942
     58 H20         1.9605   -2.3012    0.9066 H         1 <0>         0.1081
     59 H21         3.2104   -4.3676    0.3444 H         1 <0>         0.1379
     60 H22         4.6706   -3.3992    0.0311 H         1 <0>         0.1340
     61 H23         2.1619   -2.8818    2.6341 H         1 <0>         0.1229
     62 H24         2.3929   -4.6441    2.5372 H         1 <0>         0.1247
     63 H25         3.1005   -3.7267    3.8885 H         1 <0>         0.1261
     64 H26         5.9278   -4.4486    1.7256 H         1 <0>         0.1247
     65 H27         5.2624   -4.6261    3.3669 H         1 <0>         0.1255
     66 H28         4.5548   -5.5435    2.0156 H         1 <0>         0.1237
     67 H29         4.5704   -1.1459   -0.6484 H         1 <0>         0.1332
     68 H30         6.8822   -1.5114   -1.4029 H         1 <0>         0.1388
     69 H31         6.0068    0.4479   -5.0927 H         1 <0>         0.1458
     70 H32         3.6879    0.8136   -4.3604 H         1 <0>         0.1423
     71 H33         4.5107   -2.6231    2.3136 H         1 <0>         0.4265
@<TRIPOS>BOND
     1    1    2 1
     2    1   39 1
     3    1   40 1
     4    1   41 1
     5    2    3 1
     6    2   42 1
     7    2   43 1
     8    3    4 1
     9    3   23 1
    10    3   44 1
    11    4   14 1
    12    4    5 2
    13    5    6 1
    14    6   11 ar
    15    6    7 ar
    16    7    8 ar
    17    7   45 1
    18    8    9 ar
    19    8   22 1
    20    9   10 ar
    21    9   46 1
    22   10   11 ar
    23   10   47 1
    24   11   12 1
    25   12   13 2
    26   12   14 am
    27   14   15 1
    28   15   16 1
    29   15   48 1
    30   15   49 1
    31   16   21 ar
    32   16   17 ar
    33   17   18 ar
    34   17   50 1
    35   18   19 ar
    36   18   51 1
    37   19   20 ar
    38   19   52 1
    39   20   21 ar
    40   20   53 1
    41   21   54 1
    42   23   24 1
    43   23   30 am
    44   24   25 1
    45   24   55 1
    46   24   56 1
    47   25   26 1
    48   25   57 1
    49   25   58 1
    50   26   27 1
    51   26   59 1
    52   26   60 1
    53   27   28 1
    54   27   29 1
    55   27   71 1
    56   28   61 1
    57   28   62 1
    58   28   63 1
    59   29   64 1
    60   29   65 1
    61   29   66 1
    62   30   31 2
    63   30   32 1
    64   32   37 ar
    65   32   33 ar
    66   33   34 ar
    67   33   67 1
    68   34   35 ar
    69   34   68 1
    70   35   36 ar
    71   35   38 1
    72   36   37 ar
    73   36   69 1
    74   37   70 1
@<TRIPOS>MOLECULE
CHEMBL1164552__1
   71    74     0     0     0
SMALL
USER_CHARGES

@<TRIPOS>ATOM
      1 C1         -0.1796    0.3569    0.1897 C.3       1 <0>        -0.1702
      2 C2         -0.0407   -1.0383   -0.4227 C.3       1 <0>        -0.1341
      3 C3          0.7220   -0.9410   -1.7455 C.3       1 <0>         0.1374
      4 C4          0.9651   -2.3257   -2.2882 C.2       1 <0>         0.3902
      5 N1         -0.0581   -3.1035   -2.4726 N.2       1 <0>        -0.5121
      6 C5          0.0842   -4.3621   -2.9582 C.ar      1 <0>         0.1616
      7 C6         -1.0144   -5.1999   -3.1578 C.ar      1 <0>        -0.1038
      8 C7         -0.8183   -6.4710   -3.6541 C.ar      1 <0>         0.0111
      9 C8          0.4593   -6.9271   -3.9570 C.ar      1 <0>        -0.1241
     10 C9          1.5500   -6.1242   -3.7692 C.ar      1 <0>        -0.0227
     11 C10         1.3788   -4.8346   -3.2696 C.ar      1 <0>        -0.1901
     12 C11         2.5152   -3.9286   -3.0489 C.2       1 <0>         0.5499
     13 O1          3.6560   -4.2733   -3.2970 O.2       1 <0>        -0.4863
     14 N2          2.2432   -2.6945   -2.5646 N.am      1 <0>        -0.5288
     15 C12         3.3378   -1.7493   -2.3307 C.3       1 <0>         0.1111
     16 C13         3.9322   -1.9963   -0.9681 C.ar      1 <0>        -0.1205
     17 C14         3.3566   -1.4245    0.1511 C.ar      1 <0>        -0.1185
     18 C15         3.9019   -1.6511    1.4010 C.ar      1 <0>        -0.1177
     19 C16         5.0225   -2.4499    1.5317 C.ar      1 <0>        -0.1019
     20 C17         5.5976   -3.0225    0.4126 C.ar      1 <0>        -0.1128
     21 C18         5.0497   -2.7994   -0.8368 C.ar      1 <0>        -0.0840
     22 Cl1        -2.1831   -7.5145   -3.9031 Cl        1 <0>        -0.0447
     23 N3         -0.0681   -0.1706   -2.7091 N.am      1 <0>        -0.5909
     24 C19        -1.4468   -0.5655   -3.0081 C.3       1 <0>         0.1090
     25 C20        -2.4099    0.2506   -2.1436 C.3       1 <0>        -0.1789
     26 C21        -3.8498   -0.1618   -2.4558 C.3       1 <0>        -0.0083
     27 N4         -4.7745    0.6217   -1.6257 N.4       1 <0>        -0.3859
     28 C22        -4.6866    2.0396   -1.9997 C.3       1 <0>        -0.0530
     29 C23        -6.1474    0.1438   -1.8373 C.3       1 <0>        -0.0476
     30 C24         0.4735    0.9014   -3.3206 C.2       1 <0>         0.5681
     31 O2         -0.2066    1.5891   -4.0570 O.2       1 <0>        -0.5073
     32 C25         1.8943    1.2408   -3.0959 C.ar      1 <0>        -0.1331
     33 C26         2.6876    1.6759   -4.1591 C.ar      1 <0>        -0.0542
     34 C27         4.0127    1.9911   -3.9432 C.ar      1 <0>        -0.0841
     35 C28         4.5567    1.8768   -2.6749 C.ar      1 <0>        -0.0645
     36 C29         3.7750    1.4458   -1.6162 C.ar      1 <0>        -0.0873
     37 C30         2.4471    1.1332   -1.8185 C.ar      1 <0>        -0.1247
     38 Br1         6.3747    2.3105   -2.3875 Br        1 <0>        -0.0192
     39 H1          0.7990    0.7104    0.5141 H         1 <0>         0.0649
     40 H2         -0.5848    1.0419   -0.5552 H         1 <0>         0.0627
     41 H3         -0.8522    0.3124    1.0463 H         1 <0>         0.0751
     42 H4          0.5055   -1.6841    0.2649 H         1 <0>         0.0910
     43 H5         -1.0311   -1.4558   -0.6041 H         1 <0>         0.0917
     44 H6          1.6772   -0.4434   -1.5784 H         1 <0>         0.1509
     45 H7         -2.0109   -4.8549   -2.9248 H         1 <0>         0.1486
     46 H8          0.5919   -7.9264   -4.3445 H         1 <0>         0.1491
     47 H9          2.5389   -6.4873   -4.0074 H         1 <0>         0.1514
     48 H10         4.1053   -1.8866   -3.0923 H         1 <0>         0.1119
     49 H11         2.9546   -0.7301   -2.3806 H         1 <0>         0.1088
     50 H12         2.4811   -0.8004    0.0490 H         1 <0>         0.1115
     51 H13         3.4527   -1.2038    2.2753 H         1 <0>         0.1279
     52 H14         5.4490   -2.6264    2.5082 H         1 <0>         0.1288
     53 H15         6.4732   -3.6463    0.5147 H         1 <0>         0.1296
     54 H16         5.4968   -3.2497   -1.7107 H         1 <0>         0.1314
     55 H17        -1.6577   -0.3799   -4.0612 H         1 <0>         0.0919
     56 H18        -1.5757   -1.6263   -2.7932 H         1 <0>         0.1220
     57 H19        -2.1990    0.0650   -1.0904 H         1 <0>         0.0967
     58 H20        -2.2811    1.3114   -2.3585 H         1 <0>         0.0951
     59 H21        -4.0607    0.0238   -3.5089 H         1 <0>         0.1328
     60 H22        -3.9787   -1.2226   -2.2409 H         1 <0>         0.1350
     61 H23        -3.6679    2.3943   -1.8427 H         1 <0>         0.1238
     62 H24        -4.9539    2.1556   -3.0500 H         1 <0>         0.1237
     63 H25        -5.3727    2.6210   -1.3838 H         1 <0>         0.1246
     64 H26        -6.2126   -0.9083   -1.5598 H         1 <0>         0.1241
     65 H27        -6.8335    0.7252   -1.2214 H         1 <0>         0.1246
     66 H28        -6.4147    0.2597   -2.8876 H         1 <0>         0.1226
     67 H29         2.2645    1.7651   -5.1488 H         1 <0>         0.1472
     68 H30         4.6275    2.3274   -4.7649 H         1 <0>         0.1500
     69 H31         4.2050    1.3584   -0.6294 H         1 <0>         0.1484
     70 H32         1.8372    0.8014   -0.9912 H         1 <0>         0.1493
     71 H33        -4.5271    0.5144   -0.6535 H         1 <0>         0.4258
@<TRIPOS>BOND
     1    1    2 1
     2    1   39 1
     3    1   40 1
     4    1   41 1
     5    2    3 1
     6    2   42 1
     7    2   43 1
     8    3    4 1
     9    3   23 1
    10    3   44 1
    11    4   14 1
    12    4    5 2
    13    5    6 1
    14    6   11 ar
    15    6    7 ar
    16    7    8 ar
    17    7   45 1
    18    8    9 ar
    19    8   22 1
    20    9   10 ar
    21    9   46 1
    22   10   11 ar
    23   10   47 1
    24   11   12 1
    25   12   13 2
    26   12   14 am
    27   14   15 1
    28   15   16 1
    29   15   48 1
    30   15   49 1
    31   16   21 ar
    32   16   17 ar
    33   17   18 ar
    34   17   50 1
    35   18   19 ar
    36   18   51 1
    37   19   20 ar
    38   19   52 1
    39   20   21 ar
    40   20   53 1
    41   21   54 1
    42   23   24 1
    43   23   30 am
    44   24   25 1
    45   24   55 1
    46   24   56 1
    47   25   26 1
    48   25   57 1
    49   25   58 1
    50   26   27 1
    51   26   59 1
    52   26   60 1
    53   27   28 1
    54   27   29 1
    55   27   71 1
    56   28   61 1
    57   28   62 1
    58   28   63 1
    59   29   64 1
    60   29   65 1
    61   29   66 1
    62   30   31 2
    63   30   32 1
    64   32   37 ar
    65   32   33 ar
    66   33   34 ar
    67   33   67 1
    68   34   35 ar
    69   34   68 1
    70   35   36 ar
    71   35   38 1
    72   36   37 ar
    73   36   69 1
    74   37   70 1
@<TRIPOS>MOLECULE
CHEMBL390629
   32    33     0     0     0
SMALL
USER_CHARGES

@<TRIPOS>ATOM
      1 C1          0.2562    1.0605   -0.0804 C.ar      1 <0>        -0.1110
      2 C2          1.4867    1.6841   -0.1202 C.ar      1 <0>        -0.0651
      3 C3          2.6439    0.9315   -0.2083 C.ar      1 <0>        -0.1819
      4 C4          2.5752   -0.4492   -0.2571 C.ar      1 <0>        -0.0658
      5 C5          1.3501   -1.0835   -0.2176 C.ar      1 <0>        -0.1116
      6 C6          0.1809   -0.3303   -0.1288 C.ar      1 <0>        -0.0142
      7 C7         -1.1388   -1.0064   -0.0864 C.ar      1 <0>        -0.0456
      8 C8         -2.3076   -0.2511   -0.0038 C.ar      1 <0>        -0.0938
      9 C9         -3.5330   -0.8814    0.0355 C.ar      1 <0>        -0.0973
     10 C10        -3.6037   -2.2691   -0.0072 C.ar      1 <0>         0.1248
     11 C11        -2.4393   -3.0241   -0.0896 C.ar      1 <0>        -0.1159
     12 C12        -1.2122   -2.3976   -0.1349 C.ar      1 <0>        -0.0967
     13 N1         -4.8453   -2.9052    0.0332 N.pl3     1 <0>        -1.0685
     14 S1         -5.8180   -2.9083   -1.3071 S.o2      1 <0>         2.7969
     15 O1         -6.9857   -3.6397   -0.9597 O.2       1 <0>        -0.9764
     16 O2         -5.8699   -1.5673   -1.7744 O.2       1 <0>        -0.9719
     17 N2         -5.0393   -3.7867   -2.4751 N.pl3     1 <0>        -1.2590
     18 C13         3.9846    1.6183   -0.2518 C.3       1 <0>         0.5077
     19 F1          4.4675    1.7814    1.0510 F         1 <0>        -0.1754
     20 F2          4.8837    0.8398   -0.9884 F         1 <0>        -0.1762
     21 F3          3.8471    2.8714   -0.8585 F         1 <0>        -0.1760
     22 H1         -0.6465    1.6489   -0.0075 H         1 <0>         0.1402
     23 H2          1.5462    2.7619   -0.0828 H         1 <0>         0.1402
     24 H3          3.4819   -1.0319   -0.3266 H         1 <0>         0.1399
     25 H4          1.2976   -2.1616   -0.2561 H         1 <0>         0.1394
     26 H5         -2.2531    0.8270    0.0297 H         1 <0>         0.1365
     27 H6         -4.4388   -0.2966    0.0998 H         1 <0>         0.1402
     28 H7         -2.4964   -4.1021   -0.1226 H         1 <0>         0.1350
     29 H8         -0.3081   -2.9844   -0.2037 H         1 <0>         0.1357
     30 H9         -5.1385   -3.3454    0.8462 H         1 <0>         0.4287
     31 H10        -4.2079   -4.2409   -2.2669 H         1 <0>         0.4146
     32 H11        -5.4146   -3.8471   -3.3675 H         1 <0>         0.4229
@<TRIPOS>BOND
     1    1    6 ar
     2    1    2 ar
     3    1   22 1
     4    2    3 ar
     5    2   23 1
     6    3    4 ar
     7    3   18 1
     8    4    5 ar
     9    4   24 1
    10    5    6 ar
    11    5   25 1
    12    6    7 1
    13    7   12 ar
    14    7    8 ar
    15    8    9 ar
    16    8   26 1
    17    9   10 ar
    18    9   27 1
    19   10   11 ar
    20   10   13 1
    21   11   12 ar
    22   11   28 1
    23   12   29 1
    24   13   14 1
    25   13   30 1
    26   14   15 2
    27   14   16 2
    28   14   17 1
    29   17   31 1
    30   17   32 1
    31   18   19 1
    32   18   20 1
    33   18   21 1
@<TRIPOS>MOLECULE
CHEMBL390629__1
   31    32     0     0     0
SMALL
USER_CHARGES

@<TRIPOS>ATOM
      1 C1         -0.0168    1.3894    0.0097 C.ar      1 <0>        -0.1412
      2 C2          1.1704    2.0931    0.0021 C.ar      1 <0>        -0.0602
      3 C3          2.3775    1.4178   -0.0135 C.ar      1 <0>        -0.2221
      4 C4          2.4023    0.0348   -0.0216 C.ar      1 <0>        -0.0596
      5 C5          1.2212   -0.6792   -0.0137 C.ar      1 <0>        -0.1422
      6 C6          0.0021   -0.0041    0.0020 C.ar      1 <0>         0.0496
      7 C7         -1.2707   -0.7659    0.0101 C.ar      1 <0>        -0.1924
      8 C8         -2.4894   -0.0890    0.0196 C.ar      1 <0>        -0.0490
      9 C9         -3.6710   -0.7989    0.0271 C.ar      1 <0>        -0.1873
     10 C10        -3.6481   -2.1889    0.0252 C.ar      1 <0>         0.3051
     11 C11        -2.4339   -2.8659    0.0157 C.ar      1 <0>        -0.2685
     12 C12        -1.2500   -2.1598    0.0024 C.ar      1 <0>        -0.0328
     13 N1         -4.8455   -2.9056    0.0333 N.2       1 <0>        -1.1037
     14 S1         -4.8195   -4.5614    0.0311 S.o2      1 <0>         2.7188
     15 O1         -4.2717   -4.9573   -1.2189 O.2       1 <0>        -1.0517
     16 O2         -4.2530   -4.9603    1.2717 O.2       1 <0>        -1.0545
     17 N2         -6.3935   -5.0759    0.0423 N.pl3     1 <0>        -1.2493
     18 C13         3.6706    2.1918   -0.0222 C.3       1 <0>         0.5110
     19 F1          4.0838    2.4242    1.2940 F         1 <0>        -0.1818
     20 F2          4.6507    1.4547   -0.6954 F         1 <0>        -0.1817
     21 F3          3.4776    3.4149   -0.6732 F         1 <0>        -0.1818
     22 H1         -0.9587    1.9176    0.0260 H         1 <0>         0.1339
     23 H2          1.1570    3.1730    0.0081 H         1 <0>         0.1286
     24 H3          3.3476   -0.4873   -0.0345 H         1 <0>         0.1285
     25 H4          1.2416   -1.7589   -0.0204 H         1 <0>         0.1332
     26 H5         -2.5077    0.9909    0.0214 H         1 <0>         0.1117
     27 H6         -4.6153   -0.2748    0.0348 H         1 <0>         0.1169
     28 H7         -2.4182   -3.9458    0.0143 H         1 <0>         0.1015
     29 H8         -0.3070   -2.6861   -0.0098 H         1 <0>         0.1089
     30 H9         -6.6316   -5.9175   -0.3770 H         1 <0>         0.4038
     31 H10        -7.0773   -4.5356    0.4681 H         1 <0>         0.4085
@<TRIPOS>BOND
     1    1    6 ar
     2    1    2 ar
     3    1   22 1
     4    2    3 ar
     5    2   23 1
     6    3    4 ar
     7    3   18 1
     8    4    5 ar
     9    4   24 1
    10    5    6 ar
    11    5   25 1
    12    6    7 1
    13    7   12 ar
    14    7    8 ar
    15    8    9 ar
    16    8   26 1
    17    9   10 ar
    18    9   27 1
    19   10   11 ar
    20   10   13 1
    21   11   12 ar
    22   11   28 1
    23   12   29 1
    24   13   14 1
    25   14   15 2
    26   14   16 2
    27   14   17 1
    28   17   30 1
    29   17   31 1
    30   18   19 1
    31   18   20 1
    32   18   21 1
@<TRIPOS>MOLECULE
CHEMBL378497
   68    72     0     0     0
SMALL
USER_CHARGES

@<TRIPOS>ATOM
      1 C1         -0.8054    1.8954    0.7061 C.3       1 <0>        -0.1670
      2 C2         -0.5684    0.3877    0.5992 C.3       1 <0>         0.1306
      3 N1         -1.8520   -0.2974    0.4279 N.am      1 <0>        -0.7309
      4 C3         -1.8891   -1.6396    0.3108 C.2       1 <0>         0.7411
      5 O1         -0.8573   -2.2819    0.3474 O.2       1 <0>        -0.5621
      6 N2         -3.0700   -2.2698    0.1532 N.am      1 <0>        -0.4716
      7 C4         -3.2459   -3.7115   -0.0838 C.3       1 <0>         0.2058
      8 C5         -4.7752   -3.8772   -0.1848 C.3       1 <0>        -0.1219
      9 C6         -5.3071   -2.4755    0.0113 C.2       1 <0>         0.1268
     10 N3         -4.3240   -1.6638    0.1941 N.2       1 <0>        -0.2169
     11 C7         -6.7322   -2.0970    0.0008 C.ar      1 <0>        -0.0411
     12 C8         -7.7151   -3.0696   -0.1962 C.ar      1 <0>        -0.1014
     13 C9         -9.0480   -2.7079   -0.2048 C.ar      1 <0>         0.0946
     14 C10        -9.4113   -1.3833   -0.0185 C.ar      1 <0>        -0.1044
     15 C11        -8.4438   -0.4150    0.1771 C.ar      1 <0>        -0.1241
     16 C12        -7.1065   -0.7633    0.1939 C.ar      1 <0>         0.1254
     17 F1         -6.1627    0.1831    0.3908 F         1 <0>        -0.1146
     18 F2        -10.0000   -3.6473   -0.3958 F         1 <0>        -0.1271
     19 C13        -2.6929   -4.5217    1.0904 C.3       1 <0>        -0.1216
     20 C14        -3.3305   -4.0328    2.3925 C.3       1 <0>        -0.1165
     21 C15        -2.6780   -4.7454    3.5788 C.3       1 <0>        -0.1442
     22 C16        -3.3156   -4.2565    4.8809 C.3       1 <0>        -0.0060
     23 N4         -2.6891   -4.9408    6.0199 N.4       1 <0>        -0.3982
     24 C17        -3.0602   -6.3783    6.0222 C.3       1 <0>        -0.0081
     25 C18        -3.8271   -6.5737    7.3701 C.3       1 <0>        -0.0895
     26 C19        -4.5626   -5.1843    7.4480 C.3       1 <0>        -0.1348
     27 C20        -3.2147   -4.3876    7.3089 C.3       1 <0>         0.0503
     28 C21        -2.3835   -5.0862    8.3911 C.2       1 <0>        -0.2055
     29 C22        -2.7411   -6.3550    8.4328 C.2       1 <0>        -0.1097
     30 C23        -2.5817   -4.1220   -1.3727 C.ar      1 <0>        -0.0909
     31 C24        -2.0914   -5.4062   -1.5192 C.ar      1 <0>        -0.1054
     32 C25        -1.4821   -5.7827   -2.7015 C.ar      1 <0>        -0.1157
     33 C26        -1.3635   -4.8752   -3.7375 C.ar      1 <0>        -0.1094
     34 C27        -1.8545   -3.5913   -3.5914 C.ar      1 <0>        -0.1134
     35 C28        -2.4677   -3.2161   -2.4106 C.ar      1 <0>        -0.0985
     36 H1          0.1496    2.4052    0.8336 H         1 <0>         0.0793
     37 H2         -1.2893    2.2525   -0.2029 H         1 <0>         0.0647
     38 H3         -1.4452    2.1028    1.5639 H         1 <0>         0.0621
     39 H4          0.0714    0.1804   -0.2586 H         1 <0>         0.0694
     40 H5         -0.0844    0.0306    1.5082 H         1 <0>         0.0660
     41 H6         -2.6751    0.2149    0.3987 H         1 <0>         0.4080
     42 H7         -5.0544   -4.2581   -1.1671 H         1 <0>         0.1116
     43 H8         -5.1409   -4.5383    0.6009 H         1 <0>         0.1096
     44 H9         -7.4334   -4.1020   -0.3419 H         1 <0>         0.1513
     45 H10       -10.4551   -1.1061   -0.0266 H         1 <0>         0.1537
     46 H11        -8.7340    0.6152    0.3213 H         1 <0>         0.1549
     47 H12        -2.9257   -5.5766    0.9456 H         1 <0>         0.0854
     48 H13        -1.6120   -4.3921    1.1442 H         1 <0>         0.0957
     49 H14        -3.1819   -2.9572    2.4883 H         1 <0>         0.0734
     50 H15        -4.3980   -4.2524    2.3792 H         1 <0>         0.0733
     51 H16        -2.8265   -5.8210    3.4830 H         1 <0>         0.0874
     52 H17        -1.6104   -4.5258    3.5922 H         1 <0>         0.0880
     53 H18        -3.1670   -3.1810    4.9767 H         1 <0>         0.1276
     54 H19        -4.3831   -4.4761    4.8676 H         1 <0>         0.1281
     55 H20        -3.7099   -6.6060    5.1771 H         1 <0>         0.1388
     56 H21        -2.1673   -7.0029    5.9972 H         1 <0>         0.1356
     57 H22        -4.4315   -7.4758    7.4650 H         1 <0>         0.1524
     58 H23        -5.2375   -5.0183    6.6083 H         1 <0>         0.1029
     59 H24        -5.0506   -5.0203    8.4087 H         1 <0>         0.1255
     60 H25        -3.2854   -3.3016    7.3698 H         1 <0>         0.1705
     61 H26        -1.6337   -4.6195    9.0126 H         1 <0>         0.1616
     62 H27        -2.3411   -7.1067    9.0971 H         1 <0>         0.1605
     63 H28        -2.1841   -6.1152   -0.7098 H         1 <0>         0.1228
     64 H29        -1.0985   -6.7858   -2.8157 H         1 <0>         0.1266
     65 H30        -0.8868   -5.1692   -4.6610 H         1 <0>         0.1263
     66 H31        -1.7616   -2.8822   -4.4006 H         1 <0>         0.1243
     67 H32        -2.8546   -2.2141   -2.2978 H         1 <0>         0.1124
     68 H33        -1.6861   -4.8385    5.9798 H         1 <0>         0.4264
@<TRIPOS>BOND
     1    1    2 1
     2    1   36 1
     3    1   37 1
     4    1   38 1
     5    2    3 1
     6    2   39 1
     7    2   40 1
     8    3    4 am
     9    3   41 1
    10    4    5 2
    11    4    6 am
    12    6   10 1
    13    6    7 1
    14    7    8 1
    15    7   19 1
    16    7   30 1
    17    8    9 1
    18    8   42 1
    19    8   43 1
    20    9   10 2
    21    9   11 1
    22   11   16 ar
    23   11   12 ar
    24   12   13 ar
    25   12   44 1
    26   13   14 ar
    27   13   18 1
    28   14   15 ar
    29   14   45 1
    30   15   16 ar
    31   15   46 1
    32   16   17 1
    33   19   20 1
    34   19   47 1
    35   19   48 1
    36   20   21 1
    37   20   49 1
    38   20   50 1
    39   21   22 1
    40   21   51 1
    41   21   52 1
    42   22   23 1
    43   22   53 1
    44   22   54 1
    45   23   27 1
    46   23   24 1
    47   23   68 1
    48   24   25 1
    49   24   55 1
    50   24   56 1
    51   25   29 1
    52   25   26 1
    53   25   57 1
    54   26   27 1
    55   26   58 1
    56   26   59 1
    57   27   28 1
    58   27   60 1
    59   28   29 2
    60   28   61 1
    61   29   62 1
    62   30   35 ar
    63   30   31 ar
    64   31   32 ar
    65   31   63 1
    66   32   33 ar
    67   32   64 1
    68   33   34 ar
    69   33   65 1
    70   34   35 ar
    71   34   66 1
    72   35   67 1
@<TRIPOS>MOLECULE
CHEMBL378497__1
   68    72     0     0     0
SMALL
USER_CHARGES

@<TRIPOS>ATOM
      1 C1         -0.8054    1.8954    0.7061 C.3       1 <0>        -0.1670
      2 C2         -0.5684    0.3877    0.5992 C.3       1 <0>         0.1306
      3 N1         -1.8520   -0.2974    0.4279 N.am      1 <0>        -0.7310
      4 C3         -1.8891   -1.6396    0.3108 C.2       1 <0>         0.7411
      5 O1         -0.8573   -2.2819    0.3474 O.2       1 <0>        -0.5622
      6 N2         -3.0700   -2.2698    0.1532 N.am      1 <0>        -0.4715
      7 C4         -3.2459   -3.7115   -0.0838 C.3       1 <0>         0.2059
      8 C5         -4.7752   -3.8772   -0.1848 C.3       1 <0>        -0.1220
      9 C6         -5.3071   -2.4755    0.0113 C.2       1 <0>         0.1268
     10 N3         -4.3240   -1.6638    0.1941 N.2       1 <0>        -0.2168
     11 C7         -6.7322   -2.0970    0.0008 C.ar      1 <0>        -0.0410
     12 C8         -7.7151   -3.0696   -0.1962 C.ar      1 <0>        -0.1014
     13 C9         -9.0480   -2.7079   -0.2048 C.ar      1 <0>         0.0946
     14 C10        -9.4113   -1.3833   -0.0185 C.ar      1 <0>        -0.1044
     15 C11        -8.4438   -0.4150    0.1771 C.ar      1 <0>        -0.1241
     16 C12        -7.1065   -0.7633    0.1939 C.ar      1 <0>         0.1253
     17 F1         -6.1627    0.1831    0.3908 F         1 <0>        -0.1146
     18 F2        -10.0000   -3.6473   -0.3958 F         1 <0>        -0.1271
     19 C13        -2.6929   -4.5217    1.0904 C.3       1 <0>        -0.1214
     20 C14        -3.3305   -4.0328    2.3925 C.3       1 <0>        -0.1159
     21 C15        -2.6780   -4.7454    3.5788 C.3       1 <0>        -0.1438
     22 C16        -3.3156   -4.2565    4.8809 C.3       1 <0>        -0.0032
     23 N4         -2.6891   -4.9408    6.0199 N.4       1 <0>        -0.3978
     24 C17        -3.0602   -6.3783    6.0222 C.3       1 <0>        -0.0087
     25 C18        -3.8000   -6.5807    7.3842 C.3       1 <0>        -0.0889
     26 C19        -2.9581   -5.5972    8.2794 C.3       1 <0>        -0.1353
     27 C20        -3.2147   -4.3876    7.3089 C.3       1 <0>         0.0490
     28 C21        -4.7386   -4.4801    7.1706 C.2       1 <0>        -0.1999
     29 C22        -5.0820   -5.7526    7.2197 C.2       1 <0>        -0.1156
     30 C23        -2.5817   -4.1220   -1.3727 C.ar      1 <0>        -0.0908
     31 C24        -2.0914   -5.4062   -1.5192 C.ar      1 <0>        -0.1054
     32 C25        -1.4821   -5.7827   -2.7015 C.ar      1 <0>        -0.1157
     33 C26        -1.3635   -4.8752   -3.7375 C.ar      1 <0>        -0.1094
     34 C27        -1.8545   -3.5913   -3.5914 C.ar      1 <0>        -0.1134
     35 C28        -2.4677   -3.2161   -2.4106 C.ar      1 <0>        -0.0985
     36 H1          0.1496    2.4052    0.8336 H         1 <0>         0.0793
     37 H2         -1.2893    2.2525   -0.2029 H         1 <0>         0.0647
     38 H3         -1.4452    2.1028    1.5639 H         1 <0>         0.0621
     39 H4          0.0714    0.1804   -0.2586 H         1 <0>         0.0694
     40 H5         -0.0844    0.0306    1.5082 H         1 <0>         0.0660
     41 H6         -2.6751    0.2149    0.3987 H         1 <0>         0.4080
     42 H7         -5.0544   -4.2581   -1.1671 H         1 <0>         0.1115
     43 H8         -5.1409   -4.5383    0.6009 H         1 <0>         0.1095
     44 H9         -7.4334   -4.1020   -0.3419 H         1 <0>         0.1512
     45 H10       -10.4551   -1.1061   -0.0266 H         1 <0>         0.1537
     46 H11        -8.7340    0.6152    0.3213 H         1 <0>         0.1549
     47 H12        -2.9257   -5.5766    0.9456 H         1 <0>         0.0852
     48 H13        -1.6120   -4.3921    1.1442 H         1 <0>         0.0957
     49 H14        -3.1819   -2.9572    2.4883 H         1 <0>         0.0732
     50 H15        -4.3980   -4.2524    2.3792 H         1 <0>         0.0727
     51 H16        -2.8265   -5.8210    3.4830 H         1 <0>         0.0865
     52 H17        -1.6104   -4.5258    3.5922 H         1 <0>         0.0876
     53 H18        -3.1670   -3.1810    4.9767 H         1 <0>         0.1267
     54 H19        -4.3831   -4.4761    4.8676 H         1 <0>         0.1292
     55 H20        -3.7268   -6.6016    5.1891 H         1 <0>         0.1346
     56 H21        -2.1680   -7.0028    5.9761 H         1 <0>         0.1395
     57 H22        -3.9203   -7.6074    7.7299 H         1 <0>         0.1521
     58 H23        -3.3976   -5.4456    9.2653 H         1 <0>         0.1259
     59 H24        -1.9057   -5.8757    8.3348 H         1 <0>         0.1054
     60 H25        -2.8080   -3.4244    7.6172 H         1 <0>         0.1710
     61 H26        -5.4150   -3.6464    7.0531 H         1 <0>         0.1599
     62 H27        -6.0870   -6.1428    7.1553 H         1 <0>         0.1595
     63 H28        -2.1841   -6.1152   -0.7098 H         1 <0>         0.1227
     64 H29        -1.0985   -6.7858   -2.8157 H         1 <0>         0.1266
     65 H30        -0.8868   -5.1692   -4.6610 H         1 <0>         0.1263
     66 H31        -1.7616   -2.8822   -4.4006 H         1 <0>         0.1243
     67 H32        -2.8546   -2.2141   -2.2978 H         1 <0>         0.1123
     68 H33        -1.6861   -4.8385    5.9798 H         1 <0>         0.4259
@<TRIPOS>BOND
     1    1    2 1
     2    1   36 1
     3    1   37 1
     4    1   38 1
     5    2    3 1
     6    2   39 1
     7    2   40 1
     8    3    4 am
     9    3   41 1
    10    4    5 2
    11    4    6 am
    12    6   10 1
    13    6    7 1
    14    7    8 1
    15    7   19 1
    16    7   30 1
    17    8    9 1
    18    8   42 1
    19    8   43 1
    20    9   10 2
    21    9   11 1
    22   11   16 ar
    23   11   12 ar
    24   12   13 ar
    25   12   44 1
    26   13   14 ar
    27   13   18 1
    28   14   15 ar
    29   14   45 1
    30   15   16 ar
    31   15   46 1
    32   16   17 1
    33   19   20 1
    34   19   47 1
    35   19   48 1
    36   20   21 1
    37   20   49 1
    38   20   50 1
    39   21   22 1
    40   21   51 1
    41   21   52 1
    42   22   23 1
    43   22   53 1
    44   22   54 1
    45   23   27 1
    46   23   24 1
    47   23   68 1
    48   24   25 1
    49   24   55 1
    50   24   56 1
    51   25   29 1
    52   25   26 1
    53   25   57 1
    54   26   27 1
    55   26   58 1
    56   26   59 1
    57   27   28 1
    58   27   60 1
    59   28   29 2
    60   28   61 1
    61   29   62 1
    62   30   35 ar
    63   30   31 ar
    64   31   32 ar
    65   31   63 1
    66   32   33 ar
    67   32   64 1
    68   33   34 ar
    69   33   65 1
    70   34   35 ar
    71   34   66 1
    72   35   67 1
@<TRIPOS>MOLECULE
CHEMBL378497__2
   68    72     0     0     0
SMALL
USER_CHARGES

@<TRIPOS>ATOM
      1 C1          0.4316    1.2522    0.1437 C.3       1 <0>        -0.1667
      2 C2          0.3254   -0.2739    0.1147 C.3       1 <0>         0.1305
      3 N1         -1.0863   -0.6649    0.0948 N.am      1 <0>        -0.7312
      4 C3         -1.4239   -1.9694    0.0678 C.2       1 <0>         0.7394
      5 O1         -0.5568   -2.8218    0.0599 O.2       1 <0>        -0.5592
      6 N2         -2.7227   -2.3291    0.0495 N.am      1 <0>        -0.4714
      7 C4         -3.2281   -3.7048   -0.0830 C.3       1 <0>         0.2056
      8 C5         -4.7595   -3.5325   -0.0441 C.3       1 <0>        -0.1221
      9 C6         -4.9543   -2.0410    0.1100 C.2       1 <0>         0.1257
     10 N3         -3.8061   -1.4598    0.1590 N.2       1 <0>        -0.2158
     11 C7         -6.2582   -1.3578    0.1968 C.ar      1 <0>        -0.0411
     12 C8         -7.4424   -2.0965    0.1435 C.ar      1 <0>        -0.1015
     13 C9         -8.6601   -1.4499    0.2254 C.ar      1 <0>         0.0945
     14 C10        -8.7088   -0.0712    0.3602 C.ar      1 <0>        -0.1044
     15 C11        -7.5405    0.6666    0.4137 C.ar      1 <0>        -0.1242
     16 C12        -6.3149    0.0325    0.3387 C.ar      1 <0>         0.1255
     17 F1         -5.1743    0.7542    0.3968 F         1 <0>        -0.1146
     18 F2         -9.8065   -2.1628    0.1736 F         1 <0>        -0.1271
     19 C13        -2.7885   -4.3140   -1.4159 C.3       1 <0>        -0.1212
     20 C14        -3.2180   -3.3963   -2.5623 C.3       1 <0>        -0.1169
     21 C15        -2.8609   -4.0491   -3.8992 C.3       1 <0>        -0.1448
     22 C16        -3.2904   -3.1314   -5.0457 C.3       1 <0>        -0.0065
     23 N4         -2.9476   -3.7582   -6.3293 N.4       1 <0>        -0.3976
     24 C17        -1.4738   -3.7934   -6.5056 C.3       1 <0>        -0.0084
     25 C18        -1.2205   -2.9315   -7.7847 C.3       1 <0>        -0.0899
     26 C19        -2.3405   -1.8438   -7.5844 C.3       1 <0>        -0.1353
     27 C20        -3.4689   -2.9316   -7.4645 C.3       1 <0>         0.0507
     28 C21        -3.1645   -3.7651   -8.7146 C.2       1 <0>        -0.2061
     29 C22        -1.8597   -3.7621   -8.9063 C.2       1 <0>        -0.1087
     30 C23        -2.7605   -4.5550    1.0701 C.ar      1 <0>        -0.0891
     31 C24        -2.5660   -5.9122    0.8939 C.ar      1 <0>        -0.1061
     32 C25        -2.1372   -6.6920    1.9517 C.ar      1 <0>        -0.1163
     33 C26        -1.9024   -6.1145    3.1855 C.ar      1 <0>        -0.1094
     34 C27        -2.0960   -4.7572    3.3615 C.ar      1 <0>        -0.1138
     35 C28        -2.5208   -3.9766    2.3026 C.ar      1 <0>        -0.0946
     36 H1          1.4819    1.5431    0.1585 H         1 <0>         0.0793
     37 H2         -0.0478    1.6667   -0.7432 H         1 <0>         0.0613
     38 H3         -0.0638    1.6339    1.0364 H         1 <0>         0.0649
     39 H4          0.8208   -0.6556   -0.7780 H         1 <0>         0.0662
     40 H5          0.8048   -0.6883    1.0015 H         1 <0>         0.0693
     41 H6         -1.7781    0.0151    0.1011 H         1 <0>         0.4076
     42 H7         -5.2074   -3.8826   -0.9741 H         1 <0>         0.1096
     43 H8         -5.1824   -4.0634    0.8088 H         1 <0>         0.1117
     44 H9         -7.4059   -3.1707    0.0382 H         1 <0>         0.1512
     45 H10        -9.6638    0.4292    0.4234 H         1 <0>         0.1537
     46 H11        -7.5859    1.7406    0.5185 H         1 <0>         0.1549
     47 H12        -1.7041   -4.4237   -1.4251 H         1 <0>         0.0926
     48 H13        -3.2537   -5.2919   -1.5395 H         1 <0>         0.0869
     49 H14        -4.2947   -3.2336   -2.5136 H         1 <0>         0.0748
     50 H15        -2.7017   -2.4403   -2.4754 H         1 <0>         0.0725
     51 H16        -1.7842   -4.2118   -3.9480 H         1 <0>         0.0871
     52 H17        -3.3772   -5.0051   -3.9861 H         1 <0>         0.0887
     53 H18        -4.3671   -2.9687   -4.9969 H         1 <0>         0.1296
     54 H19        -2.7742   -2.1754   -4.9588 H         1 <0>         0.1268
     55 H20        -0.9756   -3.3513   -5.6428 H         1 <0>         0.1383
     56 H21        -1.1325   -4.8168   -6.6613 H         1 <0>         0.1360
     57 H22        -0.1998   -2.5869   -7.9504 H         1 <0>         0.1522
     58 H23        -2.2102   -1.2704   -6.6666 H         1 <0>         0.1025
     59 H24        -2.4652   -1.2033   -8.4575 H         1 <0>         0.1257
     60 H25        -4.4888   -2.5619   -7.3581 H         1 <0>         0.1712
     61 H26        -3.8936   -4.2684   -9.3323 H         1 <0>         0.1619
     62 H27        -1.3341   -4.2561   -9.7101 H         1 <0>         0.1605
     63 H28        -2.7495   -6.3633   -0.0700 H         1 <0>         0.1219
     64 H29        -1.9859   -7.7525    1.8142 H         1 <0>         0.1260
     65 H30        -1.5680   -6.7239    4.0121 H         1 <0>         0.1258
     66 H31        -1.9129   -4.3061    4.3255 H         1 <0>         0.1238
     67 H32        -2.6685   -2.9155    2.4391 H         1 <0>         0.1115
     68 H33        -3.3276   -4.6918   -6.3744 H         1 <0>         0.4259
@<TRIPOS>BOND
     1    1    2 1
     2    1   36 1
     3    1   37 1
     4    1   38 1
     5    2    3 1
     6    2   39 1
     7    2   40 1
     8    3    4 am
     9    3   41 1
    10    4    5 2
    11    4    6 am
    12    6   10 1
    13    6    7 1
    14    7    8 1
    15    7   19 1
    16    7   30 1
    17    8    9 1
    18    8   42 1
    19    8   43 1
    20    9   10 2
    21    9   11 1
    22   11   16 ar
    23   11   12 ar
    24   12   13 ar
    25   12   44 1
    26   13   14 ar
    27   13   18 1
    28   14   15 ar
    29   14   45 1
    30   15   16 ar
    31   15   46 1
    32   16   17 1
    33   19   20 1
    34   19   47 1
    35   19   48 1
    36   20   21 1
    37   20   49 1
    38   20   50 1
    39   21   22 1
    40   21   51 1
    41   21   52 1
    42   22   23 1
    43   22   53 1
    44   22   54 1
    45   23   27 1
    46   23   24 1
    47   23   68 1
    48   24   25 1
    49   24   55 1
    50   24   56 1
    51   25   29 1
    52   25   26 1
    53   25   57 1
    54   26   27 1
    55   26   58 1
    56   26   59 1
    57   27   28 1
    58   27   60 1
    59   28   29 2
    60   28   61 1
    61   29   62 1
    62   30   35 ar
    63   30   31 ar
    64   31   32 ar
    65   31   63 1
    66   32   33 ar
    67   32   64 1
    68   33   34 ar
    69   33   65 1
    70   34   35 ar
    71   34   66 1
    72   35   67 1
@<TRIPOS>MOLECULE
CHEMBL378497__3
   68    72     0     0     0
SMALL
USER_CHARGES

@<TRIPOS>ATOM
      1 C1          0.4316    1.2522    0.1437 C.3       1 <0>        -0.1666
      2 C2          0.3254   -0.2739    0.1147 C.3       1 <0>         0.1305
      3 N1         -1.0863   -0.6649    0.0948 N.am      1 <0>        -0.7313
      4 C3         -1.4239   -1.9694    0.0678 C.2       1 <0>         0.7395
      5 O1         -0.5568   -2.8218    0.0599 O.2       1 <0>        -0.5593
      6 N2         -2.7227   -2.3291    0.0495 N.am      1 <0>        -0.4714
      7 C4         -3.2281   -3.7048   -0.0830 C.3       1 <0>         0.2056
      8 C5         -4.7595   -3.5325   -0.0441 C.3       1 <0>        -0.1220
      9 C6         -4.9543   -2.0410    0.1100 C.2       1 <0>         0.1256
     10 N3         -3.8061   -1.4598    0.1590 N.2       1 <0>        -0.2158
     11 C7         -6.2582   -1.3578    0.1968 C.ar      1 <0>        -0.0410
     12 C8         -7.4424   -2.0965    0.1435 C.ar      1 <0>        -0.1015
     13 C9         -8.6601   -1.4499    0.2254 C.ar      1 <0>         0.0946
     14 C10        -8.7088   -0.0712    0.3602 C.ar      1 <0>        -0.1044
     15 C11        -7.5405    0.6666    0.4137 C.ar      1 <0>        -0.1242
     16 C12        -6.3149    0.0325    0.3387 C.ar      1 <0>         0.1254
     17 F1         -5.1743    0.7542    0.3968 F         1 <0>        -0.1146
     18 F2         -9.8065   -2.1628    0.1736 F         1 <0>        -0.1271
     19 C13        -2.7885   -4.3140   -1.4159 C.3       1 <0>        -0.1211
     20 C14        -3.2180   -3.3963   -2.5623 C.3       1 <0>        -0.1164
     21 C15        -2.8609   -4.0491   -3.8992 C.3       1 <0>        -0.1445
     22 C16        -3.2904   -3.1314   -5.0457 C.3       1 <0>        -0.0037
     23 N4         -2.9476   -3.7582   -6.3293 N.4       1 <0>        -0.3972
     24 C17        -1.4738   -3.7934   -6.5056 C.3       1 <0>        -0.0091
     25 C18        -1.2232   -2.9574   -7.8023 C.3       1 <0>        -0.0890
     26 C19        -2.5012   -3.3712   -8.6227 C.3       1 <0>        -0.1349
     27 C20        -3.4689   -2.9316   -7.4645 C.3       1 <0>         0.0497
     28 C21        -2.9286   -1.5233   -7.1907 C.2       1 <0>        -0.2011
     29 C22        -1.6252   -1.5339   -7.3916 C.2       1 <0>        -0.1150
     30 C23        -2.7605   -4.5550    1.0701 C.ar      1 <0>        -0.0891
     31 C24        -2.5660   -5.9122    0.8939 C.ar      1 <0>        -0.1061
     32 C25        -2.1372   -6.6920    1.9517 C.ar      1 <0>        -0.1163
     33 C26        -1.9024   -6.1145    3.1855 C.ar      1 <0>        -0.1094
     34 C27        -2.0960   -4.7572    3.3615 C.ar      1 <0>        -0.1138
     35 C28        -2.5208   -3.9766    2.3026 C.ar      1 <0>        -0.0947
     36 H1          1.4819    1.5431    0.1585 H         1 <0>         0.0793
     37 H2         -0.0478    1.6667   -0.7432 H         1 <0>         0.0612
     38 H3         -0.0638    1.6339    1.0364 H         1 <0>         0.0650
     39 H4          0.8208   -0.6556   -0.7780 H         1 <0>         0.0661
     40 H5          0.8048   -0.6883    1.0015 H         1 <0>         0.0694
     41 H6         -1.7781    0.0151    0.1011 H         1 <0>         0.4076
     42 H7         -5.2074   -3.8826   -0.9741 H         1 <0>         0.1096
     43 H8         -5.1824   -4.0634    0.8088 H         1 <0>         0.1117
     44 H9         -7.4059   -3.1707    0.0382 H         1 <0>         0.1512
     45 H10        -9.6638    0.4292    0.4234 H         1 <0>         0.1537
     46 H11        -7.5859    1.7406    0.5185 H         1 <0>         0.1549
     47 H12        -1.7041   -4.4237   -1.4251 H         1 <0>         0.0924
     48 H13        -3.2537   -5.2919   -1.5395 H         1 <0>         0.0869
     49 H14        -4.2947   -3.2336   -2.5136 H         1 <0>         0.0745
     50 H15        -2.7017   -2.4403   -2.4754 H         1 <0>         0.0720
     51 H16        -1.7842   -4.2118   -3.9480 H         1 <0>         0.0862
     52 H17        -3.3772   -5.0051   -3.9861 H         1 <0>         0.0882
     53 H18        -4.3671   -2.9687   -4.9969 H         1 <0>         0.1287
     54 H19        -2.7742   -2.1754   -4.9588 H         1 <0>         0.1281
     55 H20        -0.9763   -3.3324   -5.6523 H         1 <0>         0.1342
     56 H21        -1.1301   -4.8190   -6.6405 H         1 <0>         0.1400
     57 H22        -0.2510   -3.0735   -8.2812 H         1 <0>         0.1520
     58 H23        -2.6308   -2.7767   -9.5270 H         1 <0>         0.1260
     59 H24        -2.5439   -4.4418   -8.8225 H         1 <0>         0.1056
     60 H25        -4.5366   -3.0163   -7.6669 H         1 <0>         0.1719
     61 H26        -3.5148   -0.6691   -6.8856 H         1 <0>         0.1599
     62 H27        -0.9588   -0.6907   -7.2857 H         1 <0>         0.1590
     63 H28        -2.7495   -6.3633   -0.0700 H         1 <0>         0.1220
     64 H29        -1.9859   -7.7525    1.8142 H         1 <0>         0.1260
     65 H30        -1.5680   -6.7239    4.0121 H         1 <0>         0.1258
     66 H31        -1.9129   -4.3061    4.3255 H         1 <0>         0.1238
     67 H32        -2.6685   -2.9155    2.4391 H         1 <0>         0.1115
     68 H33        -3.3276   -4.6918   -6.3744 H         1 <0>         0.4253
@<TRIPOS>BOND
     1    1    2 1
     2    1   36 1
     3    1   37 1
     4    1   38 1
     5    2    3 1
     6    2   39 1
     7    2   40 1
     8    3    4 am
     9    3   41 1
    10    4    5 2
    11    4    6 am
    12    6   10 1
    13    6    7 1
    14    7    8 1
    15    7   19 1
    16    7   30 1
    17    8    9 1
    18    8   42 1
    19    8   43 1
    20    9   10 2
    21    9   11 1
    22   11   16 ar
    23   11   12 ar
    24   12   13 ar
    25   12   44 1
    26   13   14 ar
    27   13   18 1
    28   14   15 ar
    29   14   45 1
    30   15   16 ar
    31   15   46 1
    32   16   17 1
    33   19   20 1
    34   19   47 1
    35   19   48 1
    36   20   21 1
    37   20   49 1
    38   20   50 1
    39   21   22 1
    40   21   51 1
    41   21   52 1
    42   22   23 1
    43   22   53 1
    44   22   54 1
    45   23   27 1
    46   23   24 1
    47   23   68 1
    48   24   25 1
    49   24   55 1
    50   24   56 1
    51   25   29 1
    52   25   26 1
    53   25   57 1
    54   26   27 1
    55   26   58 1
    56   26   59 1
    57   27   28 1
    58   27   60 1
    59   28   29 2
    60   28   61 1
    61   29   62 1
    62   30   35 ar
    63   30   31 ar
    64   31   32 ar
    65   31   63 1
    66   32   33 ar
    67   32   64 1
    68   33   34 ar
    69   33   65 1
    70   34   35 ar
    71   34   66 1
    72   35   67 1
@<TRIPOS>MOLECULE
CHEMBL380186
   65    69     0     0     0
SMALL
USER_CHARGES

@<TRIPOS>ATOM
      1 C1         -1.1134    1.5753    2.3659 C.3       1 <0>        -0.1234
      2 C2         -0.9243    0.1279    1.9914 C.ar      1 <0>        -0.0474
      3 C3         -0.9171   -0.2434    0.6586 C.ar      1 <0>        -0.1350
      4 C4         -0.7445   -1.5667    0.3089 C.ar      1 <0>        -0.0459
      5 C5         -0.5767   -2.5318    1.3032 C.ar      1 <0>        -0.1562
      6 C6         -0.5849   -2.1505    2.6458 C.ar      1 <0>        -0.1216
      7 C7         -0.7529   -0.8230    2.9817 C.ar      1 <0>        -0.1399
      8 C8         -0.3917   -3.9519    0.9357 C.2       1 <0>         0.5747
      9 O1         -0.7623   -4.3519   -0.1506 O.2       1 <0>        -0.5175
     10 N1          0.1880   -4.8029    1.8053 N.am      1 <0>        -0.6074
     11 C9          0.1684   -4.5098    3.2406 C.3       1 <0>         0.1036
     12 C10         1.1965   -3.4205    3.5528 C.3       1 <0>        -0.1958
     13 C11         1.0075   -2.9426    4.9694 C.2       1 <0>         0.5202
     14 O2          0.2053   -3.4934    5.6933 O.2       1 <0>        -0.5333
     15 N2          1.7299   -1.9030    5.4319 N.am      1 <0>        -0.8525
     16 C12         0.8378   -6.0211    1.3153 C.3       1 <0>         0.2278
     17 C13         0.1850   -7.2258    1.9426 C.2       1 <0>         0.3608
     18 N3          0.2775   -7.3850    3.2200 N.2       1 <0>        -0.2837
     19 N4         -0.3077   -8.4839    3.8614 N.pl3     1 <0>        -0.2671
     20 C14        -0.9964   -9.4113    3.1006 C.2       1 <0>        -0.0992
     21 C15        -1.4717  -10.3844    3.9516 C.2       1 <0>        -0.0684
     22 C16        -1.0603  -10.0323    5.2394 C.2       1 <0>        -0.1743
     23 C17        -0.3555   -8.8731    5.1506 C.2       1 <0>         0.1361
     24 Cl1         0.3674   -8.0294    6.4845 Cl        1 <0>         0.0070
     25 C18        -1.0830   -9.2014    1.6557 C.2       1 <0>         0.5886
     26 O3         -1.6787   -9.9897    0.9437 O.2       1 <0>        -0.4826
     27 N5         -0.4884   -8.1060    1.1330 N.am      1 <0>        -0.5460
     28 C19        -0.5583   -7.8594   -0.3094 C.3       1 <0>         0.1290
     29 C20         0.5520   -8.6074   -1.0013 C.ar      1 <0>        -0.1236
     30 C21         1.7151   -7.9481   -1.3530 C.ar      1 <0>        -0.1038
     31 C22         2.7336   -8.6342   -1.9876 C.ar      1 <0>        -0.1207
     32 C23         2.5892   -9.9797   -2.2702 C.ar      1 <0>        -0.1058
     33 C24         1.4266  -10.6391   -1.9178 C.ar      1 <0>        -0.1205
     34 C25         0.4098   -9.9540   -1.2793 C.ar      1 <0>        -0.0910
     35 C26         2.3215   -5.9930    1.6880 C.3       1 <0>        -0.1724
     36 C27         2.8425   -7.1072    2.5979 C.3       1 <0>        -0.1694
     37 C28         3.2150   -7.0943    1.1140 C.3       1 <0>        -0.1803
     38 H1         -0.1421    2.0672    2.4174 H         1 <0>         0.0769
     39 H2         -1.7305    2.0675    1.6142 H         1 <0>         0.0716
     40 H3         -1.6045    1.6382    3.3370 H         1 <0>         0.0706
     41 H4         -1.0474    0.5044   -0.1098 H         1 <0>         0.1316
     42 H5         -0.7394   -1.8552   -0.7318 H         1 <0>         0.1362
     43 H6         -0.4557   -2.8925    3.4199 H         1 <0>         0.1722
     44 H7         -0.7551   -0.5260    4.0200 H         1 <0>         0.1275
     45 H8         -0.8250   -4.1648    3.5274 H         1 <0>         0.0977
     46 H9          0.4148   -5.4128    3.7992 H         1 <0>         0.1249
     47 H10         2.2017   -3.8258    3.4371 H         1 <0>         0.1061
     48 H11         1.0604   -2.5849    2.8662 H         1 <0>         0.1257
     49 H12         2.3179   -1.4165    4.8333 H         1 <0>         0.4029
     50 H13         1.6617   -1.6413    6.3635 H         1 <0>         0.4052
     51 H14         0.7365   -6.0761    0.2314 H         1 <0>         0.1387
     52 H15        -2.0512  -11.2532    3.6762 H         1 <0>         0.1654
     53 H16        -1.2659  -10.5834    6.1452 H         1 <0>         0.1715
     54 H17        -1.5201   -8.2026   -0.6905 H         1 <0>         0.1131
     55 H18        -0.4516   -6.7917   -0.5011 H         1 <0>         0.1162
     56 H19         1.8278   -6.8970   -1.1322 H         1 <0>         0.1237
     57 H20         3.6419   -8.1190   -2.2630 H         1 <0>         0.1272
     58 H21         3.3847  -10.5155   -2.7667 H         1 <0>         0.1253
     59 H22         1.3137  -11.6902   -2.1389 H         1 <0>         0.1257
     60 H23        -0.4971  -10.4701   -1.0005 H         1 <0>         0.1336
     61 H24         2.7579   -5.0011    1.8058 H         1 <0>         0.1285
     62 H25         3.6218   -6.8485    3.3147 H         1 <0>         0.1018
     63 H26         2.1283   -7.8602    2.9310 H         1 <0>         0.1038
     64 H27         2.7459   -7.8389    0.4708 H         1 <0>         0.1072
     65 H28         4.2394   -6.8271    0.8546 H         1 <0>         0.1059
@<TRIPOS>BOND
     1    1    2 1
     2    1   38 1
     3    1   39 1
     4    1   40 1
     5    2    7 ar
     6    2    3 ar
     7    3    4 ar
     8    3   41 1
     9    4    5 ar
    10    4   42 1
    11    5    6 ar
    12    5    8 1
    13    6    7 ar
    14    6   43 1
    15    7   44 1
    16    8    9 2
    17    8   10 am
    18   10   11 1
    19   10   16 1
    20   11   12 1
    21   11   45 1
    22   11   46 1
    23   12   13 1
    24   12   47 1
    25   12   48 1
    26   13   14 2
    27   13   15 am
    28   15   49 1
    29   15   50 1
    30   16   17 1
    31   16   35 1
    32   16   51 1
    33   17   27 1
    34   17   18 2
    35   18   19 1
    36   19   23 1
    37   19   20 1
    38   20   21 2
    39   20   25 1
    40   21   22 1
    41   21   52 1
    42   22   23 2
    43   22   53 1
    44   23   24 1
    45   25   26 2
    46   25   27 am
    47   27   28 1
    48   28   29 1
    49   28   54 1
    50   28   55 1
    51   29   34 ar
    52   29   30 ar
    53   30   31 ar
    54   30   56 1
    55   31   32 ar
    56   31   57 1
    57   32   33 ar
    58   32   58 1
    59   33   34 ar
    60   33   59 1
    61   34   60 1
    62   35   37 1
    63   35   36 1
    64   35   61 1
    65   36   37 1
    66   36   62 1
    67   36   63 1
    68   37   64 1
    69   37   65 1
@<TRIPOS>MOLECULE
CHEMBL380186__1
   65    69     0     0     0
SMALL
USER_CHARGES

@<TRIPOS>ATOM
      1 C1          1.2167    1.0407    4.0362 C.3       1 <0>        -0.1216
      2 C2          0.7914   -0.2893    3.4695 C.ar      1 <0>        -0.0565
      3 C3          1.4249   -0.7944    2.3479 C.ar      1 <0>        -0.1263
      4 C4          1.0404   -2.0114    1.8241 C.ar      1 <0>        -0.0576
      5 C5          0.0098   -2.7334    2.4282 C.ar      1 <0>        -0.1414
      6 C6         -0.6251   -2.2181    3.5593 C.ar      1 <0>        -0.0906
      7 C7         -0.2271   -1.0026    4.0764 C.ar      1 <0>        -0.1237
      8 C8         -0.4078   -4.0380    1.8719 C.2       1 <0>         0.5704
      9 O1         -0.4791   -4.1907    0.6681 O.2       1 <0>        -0.5237
     10 N1         -0.7094   -5.0580    2.6996 N.am      1 <0>        -0.5915
     11 C9         -0.8135   -4.8245    4.1421 C.3       1 <0>         0.0839
     12 C10        -2.2861   -4.6743    4.5295 C.3       1 <0>        -0.1769
     13 C11        -2.3854   -4.2575    5.9743 C.2       1 <0>         0.5183
     14 O2         -1.3792   -4.0114    6.6050 O.2       1 <0>        -0.5302
     15 N2         -3.5925   -4.1582    6.5655 N.am      1 <0>        -0.8558
     16 C12        -0.9332   -6.4002    2.1567 C.3       1 <0>         0.2275
     17 C13         0.0293   -7.3676    2.7962 C.2       1 <0>         0.3649
     18 N3          0.5286   -7.0729    3.9492 N.2       1 <0>        -0.2890
     19 N4          1.4281   -7.9309    4.5943 N.pl3     1 <0>        -0.2675
     20 C14         1.7815   -9.1156    3.9741 C.2       1 <0>        -0.1007
     21 C15         2.6664   -9.7748    4.7984 C.2       1 <0>        -0.0689
     22 C16         2.8435   -8.9713    5.9274 C.2       1 <0>        -0.1757
     23 C17         2.0777   -7.8586    5.7727 C.2       1 <0>         0.1341
     24 Cl1         1.9562   -6.5536    6.9111 Cl        1 <0>         0.0100
     25 C18         1.1975   -9.4199    2.6681 C.2       1 <0>         0.5905
     26 O3          1.4773  -10.4505    2.0825 O.2       1 <0>        -0.4772
     27 N5          0.3348   -8.5288    2.1312 N.am      1 <0>        -0.5500
     28 C19        -0.2743   -8.8015    0.8270 C.3       1 <0>         0.1308
     29 C20         0.7935   -8.7993   -0.2364 C.ar      1 <0>        -0.1329
     30 C21         1.0510   -7.6468   -0.9549 C.ar      1 <0>        -0.0981
     31 C22         2.0305   -7.6449   -1.9304 C.ar      1 <0>        -0.1253
     32 C23         2.7528   -8.7952   -2.1870 C.ar      1 <0>        -0.1042
     33 C24         2.4958   -9.9475   -1.4678 C.ar      1 <0>        -0.1271
     34 C25         1.5193   -9.9483   -0.4894 C.ar      1 <0>        -0.0782
     35 C26        -2.3689   -6.8377    2.4539 C.3       1 <0>        -0.1711
     36 C27        -2.5706   -7.9356    3.5001 C.3       1 <0>        -0.1736
     37 C28        -2.7836   -8.2440    2.0168 C.3       1 <0>        -0.1922
     38 H1          2.0077    0.8867    4.7702 H         1 <0>         0.0765
     39 H2          1.5862    1.6769    3.2319 H         1 <0>         0.0706
     40 H3          0.3639    1.5205    4.5163 H         1 <0>         0.0702
     41 H4          2.2219   -0.2346    1.8813 H         1 <0>         0.1310
     42 H5          1.5354   -2.4044    0.9484 H         1 <0>         0.1311
     43 H6         -1.4232   -2.7718    4.0314 H         1 <0>         0.1363
     44 H7         -0.7146   -0.6048    4.9542 H         1 <0>         0.1289
     45 H8         -0.3809   -5.6688    4.6790 H         1 <0>         0.1293
     46 H9         -0.2746   -3.9136    4.4026 H         1 <0>         0.1133
     47 H10        -2.7519   -3.9163    3.8998 H         1 <0>         0.0992
     48 H11        -2.7974   -5.6268    4.3901 H         1 <0>         0.1071
     49 H12        -4.3973   -4.3550    6.0610 H         1 <0>         0.4015
     50 H13        -3.6565   -3.8899    7.4954 H         1 <0>         0.4041
     51 H14        -0.7730   -6.3874    1.0787 H         1 <0>         0.1413
     52 H15         3.1337  -10.7297    4.6084 H         1 <0>         0.1646
     53 H16         3.4767   -9.1945    6.7733 H         1 <0>         0.1708
     54 H17        -0.7618   -9.7761    0.8504 H         1 <0>         0.1086
     55 H18        -1.0122   -8.0314    0.6025 H         1 <0>         0.1169
     56 H19         0.4868   -6.7481   -0.7545 H         1 <0>         0.1235
     57 H20         2.2312   -6.7446   -2.4923 H         1 <0>         0.1249
     58 H21         3.5175   -8.7939   -2.9496 H         1 <0>         0.1237
     59 H22         3.0599  -10.8464   -1.6685 H         1 <0>         0.1246
     60 H23         1.3212  -10.8475    0.0750 H         1 <0>         0.1402
     61 H24        -3.1212   -6.0509    2.3980 H         1 <0>         0.1353
     62 H25        -1.6806   -8.3463    3.9768 H         1 <0>         0.0898
     63 H26        -3.4558   -7.8712    4.1330 H         1 <0>         0.1075
     64 H27        -3.8089   -8.3826    1.6737 H         1 <0>         0.1127
     65 H28        -2.0337   -8.8576    1.5175 H         1 <0>         0.1133
@<TRIPOS>BOND
     1    1    2 1
     2    1   38 1
     3    1   39 1
     4    1   40 1
     5    2    7 ar
     6    2    3 ar
     7    3    4 ar
     8    3   41 1
     9    4    5 ar
    10    4   42 1
    11    5    6 ar
    12    5    8 1
    13    6    7 ar
    14    6   43 1
    15    7   44 1
    16    8    9 2
    17    8   10 am
    18   10   11 1
    19   10   16 1
    20   11   12 1
    21   11   45 1
    22   11   46 1
    23   12   13 1
    24   12   47 1
    25   12   48 1
    26   13   14 2
    27   13   15 am
    28   15   49 1
    29   15   50 1
    30   16   17 1
    31   16   35 1
    32   16   51 1
    33   17   27 1
    34   17   18 2
    35   18   19 1
    36   19   23 1
    37   19   20 1
    38   20   21 2
    39   20   25 1
    40   21   22 1
    41   21   52 1
    42   22   23 2
    43   22   53 1
    44   23   24 1
    45   25   26 2
    46   25   27 am
    47   27   28 1
    48   28   29 1
    49   28   54 1
    50   28   55 1
    51   29   34 ar
    52   29   30 ar
    53   30   31 ar
    54   30   56 1
    55   31   32 ar
    56   31   57 1
    57   32   33 ar
    58   32   58 1
    59   33   34 ar
    60   33   59 1
    61   34   60 1
    62   35   37 1
    63   35   36 1
    64   35   61 1
    65   36   37 1
    66   36   62 1
    67   36   63 1
    68   37   64 1
    69   37   65 1
@<TRIPOS>MOLECULE
CHEMBL206115
   48    51     0     0     0
SMALL
USER_CHARGES

@<TRIPOS>ATOM
      1 C1         -0.0167    1.3770    0.0096 C.ar      1 <0>        -0.0993
      2 C2          1.1707    2.0858    0.0021 C.ar      1 <0>        -0.1115
      3 C3          2.3791    1.4145   -0.0130 C.ar      1 <0>        -0.0823
      4 C4          2.4032    0.0331   -0.0211 C.ar      1 <0>        -0.1258
      5 C5          1.2136   -0.6802   -0.0135 C.ar      1 <0>         0.1158
      6 C6          0.0021   -0.0041    0.0020 C.ar      1 <0>        -0.1352
      7 O1          1.2347   -2.0390   -0.0215 O.3       1 <0>        -0.4973
      8 C7          3.6712    2.1901   -0.0212 C.3       1 <0>         0.2077
      9 H1          4.4836    1.5532   -0.3711 H         1 <0>         0.1104
     10 C8          3.9755    2.6931    1.3653 C.2       1 <0>        -0.1101
     11 C9          4.0304    4.0125    1.3617 C.2       1 <0>        -0.1037
     12 C10         3.7686    4.5316   -0.0275 C.3       1 <0>         0.1277
     13 N1          3.5440    3.3638   -0.8959 N.am      1 <0>        -0.5917
     14 C11         3.2768    3.3682   -2.2169 C.2       1 <0>         0.5305
     15 O2          3.1131    2.3207   -2.8059 O.2       1 <0>        -0.5025
     16 C12         3.1816    4.6746   -2.9620 C.3       1 <0>         0.0480
     17 H2          3.9569    5.3531   -2.6063 H         1 <0>         0.1688
     18 C13         1.8064    5.3003   -2.7206 C.3       1 <0>        -0.1917
     19 C14         0.8410    5.3635   -3.9059 C.3       1 <0>        -0.1750
     20 C15         1.5117    6.6409   -3.3965 C.3       1 <0>        -0.1574
     21 N2          3.3640    4.4329   -4.3994 N.4       1 <0>        -0.6239
     22 C16         4.3066    4.8541    2.5447 C.ar      1 <0>        -0.0533
     23 C17         5.5514    5.4664    2.6936 C.ar      1 <0>        -0.1098
     24 C18         5.8033    6.2519    3.8019 C.ar      1 <0>         0.0968
     25 C19         4.8228    6.4323    4.7645 C.ar      1 <0>        -0.1117
     26 C20         3.5872    5.8283    4.6229 C.ar      1 <0>        -0.1193
     27 C21         3.3204    5.0446    3.5159 C.ar      1 <0>         0.1079
     28 F1          2.1107    4.4596    3.3762 F         1 <0>        -0.1263
     29 F2          7.0083    6.8451    3.9478 F         1 <0>        -0.1278
     30 H3         -0.9594    1.9037    0.0259 H         1 <0>         0.1293
     31 H4          1.1540    3.1657    0.0076 H         1 <0>         0.1143
     32 H5          3.3475   -0.4909   -0.0336 H         1 <0>         0.1316
     33 H6         -0.9255   -0.5572    0.0082 H         1 <0>         0.1334
     34 H7          1.2494   -2.4373    0.8596 H         1 <0>         0.3971
     35 H8          4.1258    2.0681    2.2331 H         1 <0>         0.1623
     36 H9          2.8839    5.1683   -0.0247 H         1 <0>         0.0942
     37 H10         4.6321    5.0946   -0.3817 H         1 <0>         0.0959
     38 H11         1.3796    5.1305   -1.7320 H         1 <0>         0.1476
     39 H12         1.1857    4.9593   -4.8577 H         1 <0>         0.0949
     40 H13        -0.2211    5.2351   -3.6974 H         1 <0>         0.1265
     41 H14         0.8907    7.3529   -2.8529 H         1 <0>         0.1244
     42 H15         2.2975    7.0770   -4.0132 H         1 <0>         0.1074
     43 H16         2.6463    3.8048   -4.7286 H         1 <0>         0.4437
     44 H17         3.3002    5.3076   -4.8983 H         1 <0>         0.4418
     45 H18         6.3165    5.3263    1.9444 H         1 <0>         0.1480
     46 H19         5.0248    7.0470    5.6292 H         1 <0>         0.1529
     47 H20         2.8273    5.9728    5.3766 H         1 <0>         0.1536
     48 H21         4.2709    4.0203   -4.5586 H         1 <0>         0.4429
@<TRIPOS>BOND
     1    1    6 ar
     2    1    2 ar
     3    1   30 1
     4    2    3 ar
     5    2   31 1
     6    3    4 ar
     7    3    8 1
     8    4    5 ar
     9    4   32 1
    10    5    6 ar
    11    5    7 1
    12    6   33 1
    13    7   34 1
    14    8    9 1
    15    8   13 1
    16    8   10 1
    17   10   11 2
    18   10   35 1
    19   11   12 1
    20   11   22 1
    21   12   13 1
    22   12   36 1
    23   12   37 1
    24   13   14 am
    25   14   15 2
    26   14   16 1
    27   16   17 1
    28   16   18 1
    29   16   21 1
    30   18   20 1
    31   18   19 1
    32   18   38 1
    33   19   20 1
    34   19   39 1
    35   19   40 1
    36   20   41 1
    37   20   42 1
    38   21   43 1
    39   21   44 1
    40   21   48 1
    41   22   27 ar
    42   22   23 ar
    43   23   24 ar
    44   23   45 1
    45   24   25 ar
    46   24   29 1
    47   25   26 ar
    48   25   46 1
    49   26   27 ar
    50   26   47 1
    51   27   28 1
@<TRIPOS>MOLECULE
CHEMBL427688
   58    61     0     0     0
SMALL
USER_CHARGES

@<TRIPOS>ATOM
      1 C1         -0.5519    1.6219    0.4389 C.3       1 <0>        -0.1656
      2 C2         -0.3184    0.1391    0.3054 C.2       1 <0>         0.5512
      3 O1          0.8108   -0.3028    0.3419 O.2       1 <0>        -0.5085
      4 N1         -1.3641   -0.6960    0.1454 N.am      1 <0>        -0.4641
      5 C3         -1.2733   -2.1451   -0.0942 C.3       1 <0>         0.1872
      6 C4         -2.7465   -2.5874   -0.1973 C.3       1 <0>        -0.1247
      7 C5         -3.5259   -1.3069    0.0005 C.2       1 <0>         0.1334
      8 N2         -2.7077   -0.3293    0.1858 N.2       1 <0>        -0.2122
      9 C6         -4.9960   -1.1955   -0.0107 C.ar      1 <0>        -0.0480
     10 C7         -5.7844   -2.3312   -0.2101 C.ar      1 <0>        -0.1004
     11 C8         -7.1610   -2.2193   -0.2189 C.ar      1 <0>         0.0950
     12 C9         -7.7605   -0.9838   -0.0304 C.ar      1 <0>        -0.1009
     13 C10        -6.9865    0.1447    0.1676 C.ar      1 <0>        -0.1242
     14 C11        -5.6080    0.0471    0.1842 C.ar      1 <0>         0.1277
     15 F1         -4.8534    1.1499    0.3829 F         1 <0>        -0.1128
     16 F2         -7.9250   -3.3167   -0.4121 F         1 <0>        -0.1259
     17 C12        -0.5825   -2.8427    1.0793 C.3       1 <0>        -0.1188
     18 C13        -1.2998   -2.4809    2.3815 C.3       1 <0>        -0.1518
     19 C14        -0.5290   -3.0645    3.5673 C.3       1 <0>        -0.0051
     20 N3         -1.2176   -2.7171    4.8176 N.4       1 <0>        -0.3902
     21 C15        -1.1648   -1.2542    5.0248 C.3       1 <0>        -0.0121
     22 C16        -1.0104   -1.0769    6.5559 C.3       1 <0>        -0.1424
     23 C17        -0.0807   -2.2653    6.9169 C.3       1 <0>        -0.1422
     24 C18        -0.5471   -3.3766    5.9531 C.3       1 <0>        -0.0128
     25 C19        -0.5442   -2.4249   -1.3830 C.ar      1 <0>        -0.0952
     26 C20         0.1726   -3.5976   -1.5311 C.ar      1 <0>        -0.1063
     27 C21         0.8414   -3.8542   -2.7133 C.ar      1 <0>        -0.1139
     28 C22         0.7931   -2.9384   -3.7477 C.ar      1 <0>        -0.1070
     29 C23         0.0756   -1.7662   -3.6000 C.ar      1 <0>        -0.1117
     30 C24        -0.5968   -1.5115   -2.4193 C.ar      1 <0>        -0.1015
     31 H1          0.4044    2.1309    0.5593 H         1 <0>         0.0957
     32 H2         -1.0509    1.9932   -0.4563 H         1 <0>         0.0962
     33 H3         -1.1781    1.8142    1.3101 H         1 <0>         0.0931
     34 H4         -2.9505   -3.0112   -1.1805 H         1 <0>         0.1144
     35 H5         -2.9858   -3.3056    0.5869 H         1 <0>         0.1090
     36 H6         -5.3186   -3.2944   -0.3575 H         1 <0>         0.1513
     37 H7         -8.8374   -0.9023   -0.0386 H         1 <0>         0.1550
     38 H8         -7.4604    1.1042    0.3135 H         1 <0>         0.1562
     39 H9         -0.6185   -3.9221    0.9325 H         1 <0>         0.0941
     40 H10         0.4565   -2.5179    1.1344 H         1 <0>         0.1004
     41 H11        -1.3504   -1.3965    2.4792 H         1 <0>         0.0865
     42 H12        -2.3092   -2.8919    2.3666 H         1 <0>         0.0875
     43 H13        -0.4784   -4.1489    3.4696 H         1 <0>         0.1324
     44 H14         0.4805   -2.6535    3.5822 H         1 <0>         0.1310
     45 H15        -0.3068   -0.8280    4.5050 H         1 <0>         0.1308
     46 H16        -2.0881   -0.7886    4.6801 H         1 <0>         0.1324
     47 H17        -0.5364   -0.1244    6.7929 H         1 <0>         0.1172
     48 H18        -1.9733   -1.1678    7.0586 H         1 <0>         0.0992
     49 H19         0.9624   -2.0082    6.7328 H         1 <0>         0.0988
     50 H20        -0.2270   -2.5679    7.9537 H         1 <0>         0.1137
     51 H21        -1.2464   -4.0397    6.4624 H         1 <0>         0.1327
     52 H22         0.3130   -3.9439    5.5973 H         1 <0>         0.1317
     53 H23         0.2104   -4.3131   -0.7230 H         1 <0>         0.1229
     54 H24         1.4020   -4.7701   -2.8287 H         1 <0>         0.1282
     55 H25         1.3162   -3.1387   -4.6711 H         1 <0>         0.1281
     56 H26         0.0381   -1.0505   -4.4079 H         1 <0>         0.1266
     57 H27        -1.1605   -0.5973   -2.3052 H         1 <0>         0.1140
     58 H28        -2.1799   -3.0170    4.7707 H         1 <0>         0.4247
@<TRIPOS>BOND
     1    1    2 1
     2    1   31 1
     3    1   32 1
     4    1   33 1
     5    2    3 2
     6    2    4 am
     7    4    8 1
     8    4    5 1
     9    5    6 1
    10    5   17 1
    11    5   25 1
    12    6    7 1
    13    6   34 1
    14    6   35 1
    15    7    8 2
    16    7    9 1
    17    9   14 ar
    18    9   10 ar
    19   10   11 ar
    20   10   36 1
    21   11   12 ar
    22   11   16 1
    23   12   13 ar
    24   12   37 1
    25   13   14 ar
    26   13   38 1
    27   14   15 1
    28   17   18 1
    29   17   39 1
    30   17   40 1
    31   18   19 1
    32   18   41 1
    33   18   42 1
    34   19   20 1
    35   19   43 1
    36   19   44 1
    37   20   24 1
    38   20   21 1
    39   20   58 1
    40   21   22 1
    41   21   45 1
    42   21   46 1
    43   22   23 1
    44   22   47 1
    45   22   48 1
    46   23   24 1
    47   23   49 1
    48   23   50 1
    49   24   51 1
    50   24   52 1
    51   25   30 ar
    52   25   26 ar
    53   26   27 ar
    54   26   53 1
    55   27   28 ar
    56   27   54 1
    57   28   29 ar
    58   28   55 1
    59   29   30 ar
    60   29   56 1
    61   30   57 1
@<TRIPOS>MOLECULE
CHEMBL381526
   50    52     0     0     0
SMALL
USER_CHARGES

@<TRIPOS>ATOM
      1 C1         -0.7534    0.8443   -0.2274 C.3       1 <0>        -0.1688
      2 C2         -0.2310   -0.5624    0.0709 C.3       1 <0>        -0.1058
      3 C3          0.3728   -1.1625   -1.2005 C.3       1 <0>        -0.1713
      4 C4          0.8419   -0.4880    1.1590 C.3       1 <0>         0.0123
      5 H1          1.6133    0.2220    0.8608 H         1 <0>         0.1598
      6 C5          0.2151   -0.0349    2.4524 C.2       1 <0>         0.5256
      7 O1         -0.3848   -0.8284    3.1462 O.2       1 <0>        -0.4984
      8 N1          0.3211    1.2522    2.8381 N.am      1 <0>        -0.5914
      9 C6          1.0665    2.3219    2.1608 C.3       1 <0>         0.1218
     10 C7          0.8829    3.5770    2.9724 C.2       1 <0>        -0.1043
     11 C8          0.1214    3.3254    4.0215 C.2       1 <0>        -0.1090
     12 C9         -0.2902    1.8768    4.0191 C.3       1 <0>         0.2073
     13 H2          0.0708    1.3895    4.9248 H         1 <0>         0.1109
     14 C10        -1.7910    1.7673    3.9379 C.ar      1 <0>        -0.0830
     15 C11        -2.4322    1.9465    2.7259 C.ar      1 <0>        -0.1190
     16 C12        -3.8088    1.8468    2.6481 C.ar      1 <0>        -0.0987
     17 C13        -4.5476    1.5682    3.7819 C.ar      1 <0>        -0.1348
     18 C14        -3.9068    1.3880    4.9989 C.ar      1 <0>         0.1164
     19 C15        -2.5245    1.4826    5.0731 C.ar      1 <0>        -0.1250
     20 O2         -4.6313    1.1138    6.1155 O.3       1 <0>        -0.4958
     21 C16         1.4681    4.8937    2.6441 C.ar      1 <0>        -0.0538
     22 C17         2.8275    5.1280    2.8534 C.ar      1 <0>        -0.1100
     23 C18         3.3685    6.3611    2.5439 C.ar      1 <0>         0.0964
     24 C19         2.5639    7.3642    2.0272 C.ar      1 <0>        -0.1114
     25 C20         1.2161    7.1385    1.8175 C.ar      1 <0>        -0.1190
     26 C21         0.6636    5.9074    2.1175 C.ar      1 <0>         0.1084
     27 F1         -0.6526    5.6867    1.9072 F         1 <0>        -0.1257
     28 F2          4.6847    6.5896    2.7459 F         1 <0>        -0.1279
     29 N2          1.4436   -1.8152    1.3451 N.4       1 <0>        -0.6235
     30 H3          0.0842    1.5001   -0.4653 H         1 <0>         0.0717
     31 H4         -1.4370    0.8059   -1.0755 H         1 <0>         0.0894
     32 H5         -1.2795    1.2294    0.6461 H         1 <0>         0.0737
     33 H6         -1.0534   -1.1903    0.4138 H         1 <0>         0.1082
     34 H7          1.1952   -0.5347   -1.5435 H         1 <0>         0.0778
     35 H8          0.7449   -2.1647   -0.9880 H         1 <0>         0.0564
     36 H9         -0.3916   -1.2155   -1.9757 H         1 <0>         0.0944
     37 H10         2.1242    2.0632    2.1121 H         1 <0>         0.0950
     38 H11         0.6720    2.4695    1.1554 H         1 <0>         0.0953
     39 H12        -0.1669    4.0512    4.7675 H         1 <0>         0.1627
     40 H13        -1.8565    2.1651    1.8386 H         1 <0>         0.1205
     41 H14        -4.3073    1.9871    1.7003 H         1 <0>         0.1301
     42 H15        -5.6231    1.4910    3.7208 H         1 <0>         0.1339
     43 H16        -2.0229    1.3380    6.0186 H         1 <0>         0.1319
     44 H17        -4.7692    0.1697    6.2729 H         1 <0>         0.3958
     45 H18         3.4555    4.3474    3.2567 H         1 <0>         0.1476
     46 H19         2.9916    8.3265    1.7876 H         1 <0>         0.1530
     47 H20         0.5945    7.9243    1.4145 H         1 <0>         0.1539
     48 H21         2.1512   -1.7661    2.0627 H         1 <0>         0.4396
     49 H22         0.7296   -2.4724    1.6212 H         1 <0>         0.4439
     50 H23         1.8633   -2.1185    0.4791 H         1 <0>         0.4427
@<TRIPOS>BOND
     1    1    2 1
     2    1   30 1
     3    1   31 1
     4    1   32 1
     5    2    3 1
     6    2    4 1
     7    2   33 1
     8    3   34 1
     9    3   35 1
    10    3   36 1
    11    4    5 1
    12    4    6 1
    13    4   29 1
    14    6    7 2
    15    6    8 am
    16    8   12 1
    17    8    9 1
    18    9   10 1
    19    9   37 1
    20    9   38 1
    21   10   11 2
    22   10   21 1
    23   11   12 1
    24   11   39 1
    25   12   13 1
    26   12   14 1
    27   14   19 ar
    28   14   15 ar
    29   15   16 ar
    30   15   40 1
    31   16   17 ar
    32   16   41 1
    33   17   18 ar
    34   17   42 1
    35   18   19 ar
    36   18   20 1
    37   19   43 1
    38   20   44 1
    39   21   26 ar
    40   21   22 ar
    41   22   23 ar
    42   22   45 1
    43   23   24 ar
    44   23   28 1
    45   24   25 ar
    46   24   46 1
    47   25   26 ar
    48   25   47 1
    49   26   27 1
    50   29   48 1
    51   29   49 1
    52   29   50 1
@<TRIPOS>MOLECULE
CHEMBL248400
   65    68     0     0     0
SMALL
USER_CHARGES

@<TRIPOS>ATOM
      1 C1         -0.3228    1.5862    0.1941 C.3       1 <0>        -0.1953
      2 C2         -0.1834    0.0864    0.1473 C.2       1 <0>         0.4320
      3 O1          0.9196   -0.4221    0.1699 O.2       1 <0>        -0.4485
      4 C3         -1.3315   -0.7254    0.0774 C.2       1 <0>        -0.0801
      5 N1         -2.5617   -0.3137    0.1519 N.2       1 <0>        -0.1242
      6 N2         -3.4668   -1.2110    0.0660 N.pl3     1 <0>        -0.3912
      7 C4         -2.8603   -2.5412   -0.1027 C.3       1 <0>         0.0635
      8 C5         -1.3466   -2.2312   -0.1044 C.3       1 <0>         0.0100
      9 C6         -0.7073   -2.6269   -1.4369 C.3       1 <0>        -0.1014
     10 C7         -1.4017   -1.8802   -2.5775 C.3       1 <0>        -0.1550
     11 C8         -0.6836   -2.1795   -3.8949 C.3       1 <0>        -0.0083
     12 N3         -1.3504   -1.4626   -4.9900 N.4       1 <0>        -0.3846
     13 C9         -2.7145   -1.9809   -5.1530 C.3       1 <0>        -0.0244
     14 C10        -3.4490   -1.1578   -6.2164 C.3       1 <0>         0.0881
     15 N4         -2.6456   -1.1649   -7.4487 N.am      1 <0>        -0.6376
     16 C11        -1.2202   -0.8149   -7.3490 C.3       1 <0>         0.0849
     17 C12        -0.5910   -1.6542   -6.2321 C.3       1 <0>        -0.0217
     18 C13        -3.1995   -1.4835   -8.6353 C.2       1 <0>         0.5212
     19 O2         -4.3764   -1.7698   -8.6978 O.2       1 <0>        -0.5127
     20 C14        -2.3566   -1.4840   -9.8845 C.3       1 <0>        -0.1799
     21 C15        -0.6577   -2.9190    1.0459 C.ar      1 <0>        -0.0751
     22 C16         0.4387   -3.7276    0.8113 C.ar      1 <0>        -0.1022
     23 C17         1.0707   -4.3585    1.8665 C.ar      1 <0>        -0.1144
     24 C18         0.6066   -4.1804    3.1564 C.ar      1 <0>        -0.1098
     25 C19        -0.4892   -3.3710    3.3911 C.ar      1 <0>        -0.1125
     26 C20        -1.1185   -2.7367    2.3364 C.ar      1 <0>        -0.1099
     27 C21        -4.8399   -0.9642    0.1246 C.ar      1 <0>         0.1530
     28 C22        -5.6708   -1.4057   -0.8974 C.ar      1 <0>        -0.1358
     29 C23        -7.0304   -1.1595   -0.8360 C.ar      1 <0>         0.1126
     30 C24        -7.5636   -0.4735    0.2429 C.ar      1 <0>        -0.1142
     31 C25        -6.7395   -0.0328    1.2617 C.ar      1 <0>        -0.1037
     32 C26        -5.3800   -0.2805    1.2098 C.ar      1 <0>         0.1024
     33 F1         -4.5763    0.1454    2.2087 F         1 <0>        -0.1179
     34 F2         -7.8392   -1.5880   -1.8297 F         1 <0>        -0.1240
     35 H1          0.6662    2.0416    0.2459 H         1 <0>         0.0869
     36 H2         -0.8353    1.9317   -0.7037 H         1 <0>         0.0887
     37 H3         -0.9001    1.8702    1.0740 H         1 <0>         0.0961
     38 H4         -3.1231   -3.1936    0.7300 H         1 <0>         0.1014
     39 H5         -3.1610   -2.9849   -1.0518 H         1 <0>         0.0939
     40 H6          0.3511   -2.3666   -1.4236 H         1 <0>         0.0996
     41 H7         -0.8153   -3.7011   -1.5870 H         1 <0>         0.0888
     42 H8         -2.4393   -2.2068   -2.6470 H         1 <0>         0.0844
     43 H9         -1.3706   -0.8083   -2.3821 H         1 <0>         0.0902
     44 H10         0.3540   -1.8529   -3.8255 H         1 <0>         0.1376
     45 H11        -0.7148   -3.2514   -4.0903 H         1 <0>         0.1335
     46 H12        -2.6720   -3.0241   -5.4661 H         1 <0>         0.1355
     47 H13        -3.2469   -1.9074   -4.2047 H         1 <0>         0.1401
     48 H14        -4.4252   -1.6011   -6.4130 H         1 <0>         0.1359
     49 H15        -3.5727   -0.1333   -5.8657 H         1 <0>         0.0943
     50 H16        -0.7229   -1.0314   -8.2944 H         1 <0>         0.1339
     51 H17        -1.1189    0.2443   -7.1126 H         1 <0>         0.0987
     52 H18         0.4415   -1.3399   -6.0789 H         1 <0>         0.1468
     53 H19        -0.6126   -2.7072   -6.5126 H         1 <0>         0.1352
     54 H20        -1.5425   -2.2002   -9.7732 H         1 <0>         0.0939
     55 H21        -2.9730   -1.7644  -10.7387 H         1 <0>         0.1045
     56 H22        -1.9446   -0.4877  -10.0452 H         1 <0>         0.0965
     57 H23         0.8012   -3.8668   -0.1965 H         1 <0>         0.1228
     58 H24         1.9268   -4.9909    1.6831 H         1 <0>         0.1262
     59 H25         1.0999   -4.6738    3.9807 H         1 <0>         0.1265
     60 H26        -0.8519   -3.2321    4.3988 H         1 <0>         0.1253
     61 H27        -1.9723   -2.1014    2.5202 H         1 <0>         0.1127
     62 H28        -5.2556   -1.9402   -1.7390 H         1 <0>         0.1448
     63 H29        -8.6256   -0.2823    0.2881 H         1 <0>         0.1581
     64 H30        -7.1586    0.5017    2.1014 H         1 <0>         0.1606
     65 H31        -1.3911   -0.4786   -4.7705 H         1 <0>         0.4236
@<TRIPOS>BOND
     1    1    2 1
     2    1   35 1
     3    1   36 1
     4    1   37 1
     5    2    3 2
     6    2    4 1
     7    4    8 1
     8    4    5 2
     9    5    6 1
    10    6    7 1
    11    6   27 1
    12    7    8 1
    13    7   38 1
    14    7   39 1
    15    8    9 1
    16    8   21 1
    17    9   10 1
    18    9   40 1
    19    9   41 1
    20   10   11 1
    21   10   42 1
    22   10   43 1
    23   11   12 1
    24   11   44 1
    25   11   45 1
    26   12   17 1
    27   12   13 1
    28   12   65 1
    29   13   14 1
    30   13   46 1
    31   13   47 1
    32   14   15 1
    33   14   48 1
    34   14   49 1
    35   15   16 1
    36   15   18 am
    37   16   17 1
    38   16   50 1
    39   16   51 1
    40   17   52 1
    41   17   53 1
    42   18   19 2
    43   18   20 1
    44   20   54 1
    45   20   55 1
    46   20   56 1
    47   21   26 ar
    48   21   22 ar
    49   22   23 ar
    50   22   57 1
    51   23   24 ar
    52   23   58 1
    53   24   25 ar
    54   24   59 1
    55   25   26 ar
    56   25   60 1
    57   26   61 1
    58   27   32 ar
    59   27   28 ar
    60   28   29 ar
    61   28   62 1
    62   29   30 ar
    63   29   34 1
    64   30   31 ar
    65   30   63 1
    66   31   32 ar
    67   31   64 1
    68   32   33 1
@<TRIPOS>MOLECULE
CHEMBL248400__1
   64    67     0     0     0
SMALL
USER_CHARGES

@<TRIPOS>ATOM
      1 C1         -0.1425    1.6589    0.0148 C.3       1 <0>        -0.1931
      2 C2         -0.0960    0.1532    0.0567 C.2       1 <0>         0.4358
      3 O1          0.9742   -0.4209    0.0860 O.2       1 <0>        -0.4527
      4 C3         -1.2928   -0.5882    0.0620 C.2       1 <0>        -0.0645
      5 N1         -2.4939   -0.0960    0.1197 N.2       1 <0>        -0.1302
      6 N2         -3.4538   -0.9389    0.1127 N.pl3     1 <0>        -0.3946
      7 C4         -2.9330   -2.3133    0.0378 C.3       1 <0>         0.0664
      8 C5         -1.4034   -2.0995   -0.0053 C.3       1 <0>         0.0063
      9 C6         -0.8117   -2.6329   -1.3115 C.3       1 <0>        -0.1043
     10 C7         -1.4839   -1.9378   -2.4972 C.3       1 <0>        -0.1165
     11 C8         -0.8075   -2.3782   -3.7970 C.3       1 <0>         0.0583
     12 N3         -1.4529   -1.7108   -4.9354 N.3       1 <0>        -0.5366
     13 C9         -2.8439   -2.1577   -5.0881 C.3       1 <0>         0.0406
     14 C10        -3.5334   -1.3120   -6.1640 C.3       1 <0>         0.1161
     15 N4         -2.7244   -1.3668   -7.3910 N.am      1 <0>        -0.6168
     16 C11        -1.2884   -1.0647   -7.2918 C.3       1 <0>         0.1059
     17 C12        -0.6872   -1.9201   -6.1715 C.3       1 <0>         0.0397
     18 C13        -3.2841   -1.6851   -8.5751 C.2       1 <0>         0.5129
     19 O2         -4.4849   -1.8339   -8.6576 O.2       1 <0>        -0.5461
     20 C14        -2.4179   -1.8559   -9.7964 C.3       1 <0>        -0.1799
     21 C15        -0.7391   -2.7412    1.1855 C.ar      1 <0>        -0.0657
     22 C16         0.3709   -3.5456    1.0075 C.ar      1 <0>        -0.0967
     23 C17         0.9803   -4.1341    2.0999 C.ar      1 <0>        -0.1170
     24 C18         0.4799   -3.9179    3.3702 C.ar      1 <0>        -0.1169
     25 C19        -0.6295   -3.1128    3.5483 C.ar      1 <0>        -0.1174
     26 C20        -1.2363   -2.5208    2.4564 C.ar      1 <0>        -0.1129
     27 C21        -4.8079   -0.6031    0.1687 C.ar      1 <0>         0.1642
     28 C22        -5.6812   -1.0668   -0.8070 C.ar      1 <0>        -0.1327
     29 C23        -7.0218   -0.7322   -0.7484 C.ar      1 <0>         0.1125
     30 C24        -7.4940    0.0644    0.2818 C.ar      1 <0>        -0.1212
     31 C25        -6.6277    0.5277    1.2546 C.ar      1 <0>        -0.1079
     32 C26        -5.2870    0.1923    1.2054 C.ar      1 <0>         0.0972
     33 F1         -4.4422    0.6405    2.1597 F         1 <0>        -0.1205
     34 F2         -7.8718   -1.1823   -1.6971 F         1 <0>        -0.1254
     35 H1          0.8734    2.0540    0.0167 H         1 <0>         0.0836
     36 H2         -0.6561    1.9814   -0.8910 H         1 <0>         0.0920
     37 H3         -0.6785    2.0303    0.8882 H         1 <0>         0.0920
     38 H4         -3.2216   -2.8840    0.9205 H         1 <0>         0.0953
     39 H5         -3.2761   -2.8070   -0.8714 H         1 <0>         0.0959
     40 H6          0.2597   -2.4334   -1.3332 H         1 <0>         0.0886
     41 H7         -0.9826   -3.7075   -1.3758 H         1 <0>         0.0742
     42 H8         -2.5392   -2.2090   -2.5268 H         1 <0>         0.0590
     43 H9         -1.3893   -0.8575   -2.3864 H         1 <0>         0.0744
     44 H10         0.2478   -2.1070   -3.7674 H         1 <0>         0.0798
     45 H11        -0.9020   -3.4584   -3.9078 H         1 <0>         0.0358
     46 H12        -2.8585   -3.2063   -5.3850 H         1 <0>         0.0386
     47 H13        -3.3698   -2.0401   -4.1406 H         1 <0>         0.0865
     48 H14        -4.5277   -1.7120   -6.3628 H         1 <0>         0.0946
     49 H15        -3.6124   -0.2796   -5.8234 H         1 <0>         0.0746
     50 H16        -0.7983   -1.3013   -8.2363 H         1 <0>         0.0973
     51 H17        -1.1516   -0.0086   -7.0596 H         1 <0>         0.0802
     52 H18         0.3510   -1.6303   -6.0098 H         1 <0>         0.0906
     53 H19        -0.7319   -2.9721   -6.4533 H         1 <0>         0.0400
     54 H20        -1.3687   -1.7789   -9.5113 H         1 <0>         0.0824
     55 H21        -2.6033   -2.8345  -10.2393 H         1 <0>         0.0954
     56 H22        -2.6553   -1.0778  -10.5219 H         1 <0>         0.0966
     57 H23         0.7619   -3.7145    0.0151 H         1 <0>         0.1265
     58 H24         1.8471   -4.7631    1.9607 H         1 <0>         0.1235
     59 H25         0.9556   -4.3783    4.2235 H         1 <0>         0.1221
     60 H26        -1.0207   -2.9441    4.5407 H         1 <0>         0.1215
     61 H27        -2.1009   -1.8887    2.5959 H         1 <0>         0.1126
     62 H28        -5.3136   -1.6876   -1.6107 H         1 <0>         0.1496
     63 H29        -8.5414    0.3245    0.3250 H         1 <0>         0.1542
     64 H30        -6.9992    1.1486    2.0564 H         1 <0>         0.1566
@<TRIPOS>BOND
     1    1    2 1
     2    1   35 1
     3    1   36 1
     4    1   37 1
     5    2    3 2
     6    2    4 1
     7    4    8 1
     8    4    5 2
     9    5    6 1
    10    6    7 1
    11    6   27 1
    12    7    8 1
    13    7   38 1
    14    7   39 1
    15    8    9 1
    16    8   21 1
    17    9   10 1
    18    9   40 1
    19    9   41 1
    20   10   11 1
    21   10   42 1
    22   10   43 1
    23   11   12 1
    24   11   44 1
    25   11   45 1
    26   12   17 1
    27   12   13 1
    28   13   14 1
    29   13   46 1
    30   13   47 1
    31   14   15 1
    32   14   48 1
    33   14   49 1
    34   15   16 1
    35   15   18 am
    36   16   17 1
    37   16   50 1
    38   16   51 1
    39   17   52 1
    40   17   53 1
    41   18   19 2
    42   18   20 1
    43   20   54 1
    44   20   55 1
    45   20   56 1
    46   21   26 ar
    47   21   22 ar
    48   22   23 ar
    49   22   57 1
    50   23   24 ar
    51   23   58 1
    52   24   25 ar
    53   24   59 1
    54   25   26 ar
    55   25   60 1
    56   26   61 1
    57   27   32 ar
    58   27   28 ar
    59   28   29 ar
    60   28   62 1
    61   29   30 ar
    62   29   34 1
    63   30   31 ar
    64   30   63 1
    65   31   32 ar
    66   31   64 1
    67   32   33 1
@<TRIPOS>MOLECULE
CHEMBL398396
   62    66     0     0     0
SMALL
USER_CHARGES

@<TRIPOS>ATOM
      1 C1         -0.3991    1.6512   -0.4420 C.3       1 <0>        -0.1698
      2 C2         -0.2641    0.1614   -0.2595 C.2       1 <0>         0.5517
      3 O1         -0.2845   -0.3175    0.8549 O.2       1 <0>        -0.5094
      4 N1         -0.1207   -0.6389   -1.3344 N.am      1 <0>        -0.4630
      5 C3          0.1130   -2.0913   -1.2951 C.3       1 <0>         0.1871
      6 C4          0.1962   -2.4844   -2.7834 C.3       1 <0>        -0.1248
      7 C5         -0.0048   -1.1777   -3.5170 C.2       1 <0>         0.1330
      8 N2         -0.1756   -0.2273   -2.6644 N.2       1 <0>        -0.2121
      9 C6         -0.0107   -1.0171   -4.9827 C.ar      1 <0>        -0.0476
     10 C7          0.1738   -2.1266   -5.8110 C.ar      1 <0>        -0.1006
     11 C8          0.1666   -1.9688   -7.1830 C.ar      1 <0>         0.0950
     12 C9         -0.0232   -0.7131   -7.7386 C.ar      1 <0>        -0.1011
     13 C10        -0.2065    0.3898   -6.9249 C.ar      1 <0>        -0.1241
     14 C11        -0.2069    0.2461   -5.5504 C.ar      1 <0>         0.1278
     15 F1         -0.3913    1.3239   -4.7569 F         1 <0>        -0.1129
     16 F2          0.3453   -3.0407   -7.9856 F         1 <0>        -0.1260
     17 C12        -1.0555   -2.8065   -0.6138 C.3       1 <0>        -0.1187
     18 C13        -2.3607   -2.4416   -1.3240 C.3       1 <0>        -0.1502
     19 C14        -3.5385   -3.0824   -0.5872 C.3       1 <0>        -0.0093
     20 N3         -4.7917   -2.7321   -1.2690 N.4       1 <0>        -0.3934
     21 C15        -5.1061   -1.3006   -1.0495 C.3       1 <0>        -0.0111
     22 C16        -6.4906   -1.2910   -0.3301 C.3       1 <0>        -0.1033
     23 C17        -6.1783   -1.8419    1.0963 C.3       1 <0>        -0.1390
     24 C18        -5.7884   -3.3189    0.8545 C.3       1 <0>        -0.1552
     25 C19        -5.9272   -3.5118   -0.6864 C.3       1 <0>         0.0235
     26 C20        -7.1367   -2.5606   -0.9931 C.3       1 <0>        -0.1423
     27 C21         1.4091   -2.4011   -0.5915 C.ar      1 <0>        -0.0947
     28 C22         1.5601   -3.5978    0.0838 C.ar      1 <0>        -0.1064
     29 C23         2.7490   -3.8819    0.7293 C.ar      1 <0>        -0.1138
     30 C24         3.7871   -2.9696    0.6990 C.ar      1 <0>        -0.1071
     31 C25         3.6364   -1.7733    0.0229 C.ar      1 <0>        -0.1117
     32 C26         2.4490   -1.4910   -0.6261 C.ar      1 <0>        -0.1015
     33 H1          0.5893    2.1104   -0.4243 H         1 <0>         0.1007
     34 H2         -0.8788    1.8581   -1.3986 H         1 <0>         0.0930
     35 H3         -1.0054    2.0626    0.3650 H         1 <0>         0.0956
     36 H4          1.1749   -2.9055   -3.0135 H         1 <0>         0.1143
     37 H5         -0.5943   -3.1908   -3.0370 H         1 <0>         0.1090
     38 H6          0.3221   -3.1055   -5.3795 H         1 <0>         0.1511
     39 H7         -0.0275   -0.5955   -8.8121 H         1 <0>         0.1549
     40 H8         -0.3534    1.3652   -7.3646 H         1 <0>         0.1562
     41 H9         -0.9022   -3.8843   -0.6665 H         1 <0>         0.0940
     42 H10        -1.1114   -2.4980    0.4301 H         1 <0>         0.1002
     43 H11        -2.4811   -1.3583   -1.3288 H         1 <0>         0.0858
     44 H12        -2.3309   -2.8085   -2.3499 H         1 <0>         0.0870
     45 H13        -3.4181   -4.1657   -0.5823 H         1 <0>         0.1315
     46 H14        -3.5683   -2.7155    0.4388 H         1 <0>         0.1346
     47 H15        -4.3478   -0.8398   -0.4164 H         1 <0>         0.1299
     48 H16        -5.1720   -0.7774   -2.0035 H         1 <0>         0.1305
     49 H17        -7.0609   -0.3639   -0.3886 H         1 <0>         0.1463
     50 H18        -5.3471   -1.2960    1.5427 H         1 <0>         0.0843
     51 H19        -7.0620   -1.7796    1.7314 H         1 <0>         0.0953
     52 H20        -4.7602   -3.4974    1.1693 H         1 <0>         0.0945
     53 H21        -6.4703   -3.9841    1.3842 H         1 <0>         0.1109
     54 H22        -6.0175   -4.5429   -1.0282 H         1 <0>         0.1686
     55 H23        -8.0468   -2.8740   -0.4815 H         1 <0>         0.1219
     56 H24        -7.2966   -2.4299   -2.0633 H         1 <0>         0.0993
     57 H25         0.7491   -4.3105    0.1075 H         1 <0>         0.1228
     58 H26         2.8668   -4.8165    1.2575 H         1 <0>         0.1281
     59 H27         4.7158   -3.1913    1.2039 H         1 <0>         0.1281
     60 H28         4.4473   -1.0603   -0.0004 H         1 <0>         0.1265
     61 H29         2.3326   -0.5580   -1.1574 H         1 <0>         0.1141
     62 H30        -4.7130   -2.9218   -2.2569 H         1 <0>         0.4220
@<TRIPOS>BOND
     1    1    2 1
     2    1   33 1
     3    1   34 1
     4    1   35 1
     5    2    3 2
     6    2    4 am
     7    4    8 1
     8    4    5 1
     9    5    6 1
    10    5   17 1
    11    5   27 1
    12    6    7 1
    13    6   36 1
    14    6   37 1
    15    7    8 2
    16    7    9 1
    17    9   14 ar
    18    9   10 ar
    19   10   11 ar
    20   10   38 1
    21   11   12 ar
    22   11   16 1
    23   12   13 ar
    24   12   39 1
    25   13   14 ar
    26   13   40 1
    27   14   15 1
    28   17   18 1
    29   17   41 1
    30   17   42 1
    31   18   19 1
    32   18   43 1
    33   18   44 1
    34   19   20 1
    35   19   45 1
    36   19   46 1
    37   20   25 1
    38   20   21 1
    39   20   62 1
    40   21   22 1
    41   21   47 1
    42   21   48 1
    43   22   26 1
    44   22   23 1
    45   22   49 1
    46   23   24 1
    47   23   50 1
    48   23   51 1
    49   24   25 1
    50   24   52 1
    51   24   53 1
    52   25   26 1
    53   25   54 1
    54   26   55 1
    55   26   56 1
    56   27   32 ar
    57   27   28 ar
    58   28   29 ar
    59   28   57 1
    60   29   30 ar
    61   29   58 1
    62   30   31 ar
    63   30   59 1
    64   31   32 ar
    65   31   60 1
    66   32   61 1
@<TRIPOS>MOLECULE
CHEMBL398396__1
   62    66     0     0     0
SMALL
USER_CHARGES

@<TRIPOS>ATOM
      1 C1         -0.4484    1.6286   -0.5209 C.3       1 <0>        -0.1700
      2 C2         -0.3026    0.1428   -0.3156 C.2       1 <0>         0.5515
      3 O1         -0.3350   -0.3208    0.8049 O.2       1 <0>        -0.5093
      4 N1         -0.1360   -0.6709   -1.3770 N.am      1 <0>        -0.4632
      5 C3          0.1153   -2.1195   -1.3140 C.3       1 <0>         0.1870
      6 C4          0.2217   -2.5328   -2.7953 C.3       1 <0>        -0.1247
      7 C5          0.0134   -1.2394   -3.5501 C.2       1 <0>         0.1336
      8 N2         -0.1796   -0.2791   -2.7135 N.2       1 <0>        -0.2126
      9 C6          0.0235   -1.0999   -5.0179 C.ar      1 <0>        -0.0478
     10 C7          0.2320   -2.2187   -5.8277 C.ar      1 <0>        -0.1004
     11 C8          0.2397   -2.0806   -7.2019 C.ar      1 <0>         0.0950
     12 C9          0.0411   -0.8355   -7.7778 C.ar      1 <0>        -0.1011
     13 C10        -0.1660    0.2765   -6.9825 C.ar      1 <0>        -0.1241
     14 C11        -0.1815    0.1525   -5.6061 C.ar      1 <0>         0.1278
     15 F1         -0.3890    1.2391   -4.8306 F         1 <0>        -0.1130
     16 F2          0.4416   -3.1616   -7.9867 F         1 <0>        -0.1260
     17 C12        -1.0524   -2.8396   -0.6366 C.3       1 <0>        -0.1183
     18 C13        -2.3576   -2.4747   -1.3467 C.3       1 <0>        -0.1504
     19 C14        -3.5385   -3.0824   -0.5872 C.3       1 <0>        -0.0058
     20 N3         -4.7917   -2.7321   -1.2690 N.4       1 <0>        -0.3938
     21 C15        -5.0440   -1.2765   -1.1511 C.3       1 <0>        -0.0109
     22 C16        -6.3892   -1.1561   -0.3697 C.3       1 <0>        -0.1032
     23 C17        -7.4625   -1.6539   -1.3875 C.3       1 <0>        -0.1390
     24 C18        -7.1542   -3.1600   -1.5562 C.3       1 <0>        -0.1462
     25 C19        -5.9439   -3.4192   -0.6080 C.3       1 <0>         0.0235
     26 C20        -6.2652   -2.4187    0.5573 C.3       1 <0>        -0.1425
     27 C21         1.4065   -2.4027   -0.5903 C.ar      1 <0>        -0.0948
     28 C22         1.5641   -3.5876    0.1040 C.ar      1 <0>        -0.1063
     29 C23         2.7485   -3.8474    0.7678 C.ar      1 <0>        -0.1138
     30 C24         3.7754   -2.9225    0.7370 C.ar      1 <0>        -0.1071
     31 C25         3.6181   -1.7380    0.0419 C.ar      1 <0>        -0.1118
     32 C26         2.4353   -1.4801   -0.6255 C.ar      1 <0>        -0.1016
     33 H1          0.5353    2.0973   -0.4951 H         1 <0>         0.1008
     34 H2         -0.9158    1.8178   -1.4872 H         1 <0>         0.0930
     35 H3         -1.0703    2.0455    0.2713 H         1 <0>         0.0956
     36 H4          1.2083   -2.9447   -3.0074 H         1 <0>         0.1143
     37 H5         -0.5567   -3.2527   -3.0482 H         1 <0>         0.1089
     38 H6          0.3872   -3.1894   -5.3804 H         1 <0>         0.1512
     39 H7          0.0484   -0.7333   -8.8530 H         1 <0>         0.1549
     40 H8         -0.3197    1.2436   -7.4380 H         1 <0>         0.1562
     41 H9         -0.8969   -3.9170   -0.6931 H         1 <0>         0.0939
     42 H10        -1.1100   -2.5351    0.4085 H         1 <0>         0.1002
     43 H11        -2.4641   -1.3904   -1.3766 H         1 <0>         0.0860
     44 H12        -2.3395   -2.8663   -2.3638 H         1 <0>         0.0867
     45 H13        -3.4320   -4.1668   -0.5572 H         1 <0>         0.1308
     46 H14        -3.5566   -2.6909    0.4299 H         1 <0>         0.1297
     47 H15        -4.2390   -0.7971   -0.5941 H         1 <0>         0.1286
     48 H16        -5.1398   -0.8281   -2.1400 H         1 <0>         0.1319
     49 H17        -6.5797   -0.2029    0.1236 H         1 <0>         0.1461
     50 H18        -8.4653   -1.5125   -0.9844 H         1 <0>         0.0952
     51 H19        -7.3560   -1.1336   -2.3394 H         1 <0>         0.0859
     52 H20        -8.0115   -3.7603   -1.2517 H         1 <0>         0.1128
     53 H21        -6.8824   -3.3795   -2.5888 H         1 <0>         0.0888
     54 H22        -5.7767   -4.4590   -0.3271 H         1 <0>         0.1680
     55 H23        -5.4400   -2.3312    1.2639 H         1 <0>         0.0973
     56 H24        -7.2045   -2.6565    1.0567 H         1 <0>         0.1217
     57 H25         0.7618   -4.3102    0.1282 H         1 <0>         0.1229
     58 H26         2.8714   -4.7728    1.3109 H         1 <0>         0.1282
     59 H27         4.7005   -3.1252    1.2562 H         1 <0>         0.1281
     60 H28         4.4203   -1.0153    0.0180 H         1 <0>         0.1265
     61 H29         2.3138   -0.5564   -1.1716 H         1 <0>         0.1141
     62 H30        -4.7427   -2.9974   -2.2413 H         1 <0>         0.4213
@<TRIPOS>BOND
     1    1    2 1
     2    1   33 1
     3    1   34 1
     4    1   35 1
     5    2    3 2
     6    2    4 am
     7    4    8 1
     8    4    5 1
     9    5    6 1
    10    5   17 1
    11    5   27 1
    12    6    7 1
    13    6   36 1
    14    6   37 1
    15    7    8 2
    16    7    9 1
    17    9   14 ar
    18    9   10 ar
    19   10   11 ar
    20   10   38 1
    21   11   12 ar
    22   11   16 1
    23   12   13 ar
    24   12   39 1
    25   13   14 ar
    26   13   40 1
    27   14   15 1
    28   17   18 1
    29   17   41 1
    30   17   42 1
    31   18   19 1
    32   18   43 1
    33   18   44 1
    34   19   20 1
    35   19   45 1
    36   19   46 1
    37   20   25 1
    38   20   21 1
    39   20   62 1
    40   21   22 1
    41   21   47 1
    42   21   48 1
    43   22   26 1
    44   22   23 1
    45   22   49 1
    46   23   24 1
    47   23   50 1
    48   23   51 1
    49   24   25 1
    50   24   52 1
    51   24   53 1
    52   25   26 1
    53   25   54 1
    54   26   55 1
    55   26   56 1
    56   27   32 ar
    57   27   28 ar
    58   28   29 ar
    59   28   57 1
    60   29   30 ar
    61   29   58 1
    62   30   31 ar
    63   30   59 1
    64   31   32 ar
    65   31   60 1
    66   32   61 1
@<TRIPOS>MOLECULE
CHEMBL246000
   63    66     0     0     0
SMALL
USER_CHARGES

@<TRIPOS>ATOM
      1 C1         -3.7526  -11.2028    1.3423 C.3       1 <0>        -0.0980
      2 C2         -3.2645  -10.5972    0.0515 C.2       1 <0>         0.1047
      3 C3         -2.4983   -9.4244   -0.0729 C.2       1 <0>        -0.2152
      4 C4         -2.2639   -9.2140   -1.3824 C.2       1 <0>        -0.0137
      5 O1         -2.8505  -10.2037   -2.0729 O.3       1 <0>        -0.0661
      6 N1         -3.4740  -11.0719   -1.1438 N.2       1 <0>        -0.2738
      7 C5         -1.4807   -8.0679   -1.9691 C.3       1 <0>         0.0784
      8 N2         -0.0646   -8.4446   -2.0721 N.4       1 <0>        -0.3870
      9 C6          0.4882   -8.6441   -0.7258 C.3       1 <0>        -0.0621
     10 C7          0.6782   -7.3755   -2.7529 C.3       1 <0>        -0.0083
     11 C8          2.1259   -7.8198   -2.9715 C.3       1 <0>        -0.1556
     12 C9          2.8994   -6.7063   -3.6806 C.3       1 <0>        -0.1016
     13 C10         4.3744   -7.0986   -3.7878 C.3       1 <0>         0.0102
     14 C11         4.5363   -8.4328   -4.5499 C.3       1 <0>         0.0625
     15 N3          5.1537   -9.3118   -3.5438 N.pl3     1 <0>        -0.3907
     16 N4          5.3276   -8.6827   -2.4458 N.2       1 <0>        -0.1237
     17 C12         4.9441   -7.4413   -2.4244 C.2       1 <0>        -0.0820
     18 C13         5.0409   -6.5659   -1.3261 C.2       1 <0>         0.4326
     19 O2          4.7366   -5.3967   -1.4527 O.2       1 <0>        -0.4500
     20 C14         5.5222   -7.0793    0.0065 C.3       1 <0>        -0.1975
     21 C15         5.5003  -10.6471   -3.7593 C.ar      1 <0>         0.1545
     22 C16         6.3382  -10.9875   -4.8137 C.ar      1 <0>        -0.1315
     23 C17         6.6798  -12.3111   -5.0238 C.ar      1 <0>         0.1191
     24 C18         6.1870  -13.2968   -4.1845 C.ar      1 <0>        -0.1155
     25 C19         5.3525  -12.9616   -3.1344 C.ar      1 <0>        -0.1060
     26 C20         5.0118  -11.6395   -2.9147 C.ar      1 <0>         0.0951
     27 F1          4.2010  -11.3122   -1.8848 F         1 <0>        -0.1276
     28 F2          7.4946  -12.6431   -6.0490 F         1 <0>        -0.1206
     29 C21         5.1735   -6.0026   -4.4447 C.ar      1 <0>        -0.0746
     30 C22         4.5661   -4.8042   -4.7697 C.ar      1 <0>        -0.1011
     31 C23         5.2990   -3.7989   -5.3722 C.ar      1 <0>        -0.1138
     32 C24         6.6395   -3.9919   -5.6493 C.ar      1 <0>        -0.1101
     33 C25         7.2471   -5.1900   -5.3235 C.ar      1 <0>        -0.1128
     34 C26         6.5152   -6.1937   -4.7171 C.ar      1 <0>        -0.1118
     35 H1         -3.0062  -11.9011    1.7210 H         1 <0>         0.0991
     36 H2         -3.9160  -10.4128    2.0753 H         1 <0>         0.0968
     37 H3         -4.6884  -11.7325    1.1641 H         1 <0>         0.0922
     38 H4         -2.1575   -8.8007    0.7403 H         1 <0>         0.1745
     39 H5         -1.8674   -7.8336   -2.9609 H         1 <0>         0.1564
     40 H6         -1.5783   -7.1939   -1.3253 H         1 <0>         0.1634
     41 H7          0.3987   -7.7195   -0.1556 H         1 <0>         0.1306
     42 H8         -0.0629   -9.4373   -0.2207 H         1 <0>         0.1235
     43 H9          1.5390   -8.9236   -0.8022 H         1 <0>         0.1300
     44 H10         0.2129   -7.1664   -3.7162 H         1 <0>         0.1381
     45 H11         0.6632   -6.4750   -2.1391 H         1 <0>         0.1389
     46 H12         2.5911   -8.0288   -2.0083 H         1 <0>         0.0917
     47 H13         2.1408   -8.7203   -3.5854 H         1 <0>         0.0863
     48 H14         2.4893   -6.5583   -4.6796 H         1 <0>         0.0895
     49 H15         2.8099   -5.7817   -3.1104 H         1 <0>         0.0998
     50 H16         3.5657   -8.8214   -4.8583 H         1 <0>         0.0967
     51 H17         5.1944   -8.3087   -5.4099 H         1 <0>         0.1006
     52 H18         6.6061   -6.9797    0.0643 H         1 <0>         0.0995
     53 H19         5.0610   -6.5008    0.8068 H         1 <0>         0.0883
     54 H20         5.2477   -8.1289    0.1121 H         1 <0>         0.0857
     55 H21         6.7222  -10.2195   -5.4688 H         1 <0>         0.1526
     56 H22         6.4550  -14.3297   -4.3511 H         1 <0>         0.1582
     57 H23         4.9695  -13.7327   -2.4825 H         1 <0>         0.1584
     58 H24         3.5188   -4.6534   -4.5532 H         1 <0>         0.1236
     59 H25         4.8243   -2.8628   -5.6268 H         1 <0>         0.1264
     60 H26         7.2120   -3.2067   -6.1207 H         1 <0>         0.1265
     61 H27         8.2943   -5.3409   -5.5403 H         1 <0>         0.1252
     62 H28         6.9908   -7.1284   -4.4591 H         1 <0>         0.1119
     63 H29         0.0183   -9.3005   -2.6000 H         1 <0>         0.4289
@<TRIPOS>BOND
     1    1    2 1
     2    1   35 1
     3    1   36 1
     4    1   37 1
     5    2    6 2
     6    2    3 1
     7    3    4 2
     8    3   38 1
     9    4    5 1
    10    4    7 1
    11    5    6 1
    12    7    8 1
    13    7   39 1
    14    7   40 1
    15    8    9 1
    16    8   10 1
    17    8   63 1
    18    9   41 1
    19    9   42 1
    20    9   43 1
    21   10   11 1
    22   10   44 1
    23   10   45 1
    24   11   12 1
    25   11   46 1
    26   11   47 1
    27   12   13 1
    28   12   48 1
    29   12   49 1
    30   13   17 1
    31   13   14 1
    32   13   29 1
    33   14   15 1
    34   14   50 1
    35   14   51 1
    36   15   16 1
    37   15   21 1
    38   16   17 2
    39   17   18 1
    40   18   19 2
    41   18   20 1
    42   20   52 1
    43   20   53 1
    44   20   54 1
    45   21   26 ar
    46   21   22 ar
    47   22   23 ar
    48   22   55 1
    49   23   24 ar
    50   23   28 1
    51   24   25 ar
    52   24   56 1
    53   25   26 ar
    54   25   57 1
    55   26   27 1
    56   29   34 ar
    57   29   30 ar
    58   30   31 ar
    59   30   58 1
    60   31   32 ar
    61   31   59 1
    62   32   33 ar
    63   32   60 1
    64   33   34 ar
    65   33   61 1
    66   34   62 1
@<TRIPOS>MOLECULE
CHEMBL246000__1
   63    66     0     0     0
SMALL
USER_CHARGES

@<TRIPOS>ATOM
      1 C1         -3.2338   -4.2642  -10.5055 C.3       1 <0>        -0.0979
      2 C2         -2.4340   -3.9256   -9.2739 C.2       1 <0>         0.1041
      3 C3         -2.1813   -4.7864   -8.1907 C.2       1 <0>        -0.2161
      4 C4         -1.4337   -4.1190   -7.2909 C.2       1 <0>        -0.0136
      5 O1         -1.2129   -2.8849   -7.7689 O.3       1 <0>        -0.0648
      6 N1         -1.8513   -2.7861   -9.0292 N.2       1 <0>        -0.2728
      7 C5         -0.9333   -4.6628   -5.9775 C.3       1 <0>         0.0783
      8 N2          0.3812   -5.2880   -6.1752 N.4       1 <0>        -0.3876
      9 C6          0.2400   -6.4582   -7.0519 C.3       1 <0>        -0.0614
     10 C7          0.9225   -5.7112   -4.8768 C.3       1 <0>        -0.0085
     11 C8          2.3424   -6.2484   -5.0668 C.3       1 <0>        -0.1541
     12 C9          2.9061   -6.6892   -3.7145 C.3       1 <0>        -0.1018
     13 C10         4.3056   -7.2752   -3.9119 C.3       1 <0>         0.0102
     14 C11         4.2705   -8.4691   -4.8921 C.3       1 <0>         0.0644
     15 N3          5.1266   -8.0103   -5.9978 N.pl3     1 <0>        -0.3922
     16 N4          5.5739   -6.8375   -5.7610 N.2       1 <0>        -0.1245
     17 C12         5.2056   -6.2945   -4.6393 C.2       1 <0>        -0.0791
     18 C13         5.5773   -5.0171   -4.1791 C.2       1 <0>         0.4347
     19 O2          5.0989   -4.5785   -3.1522 O.2       1 <0>        -0.4524
     20 C14         6.5687   -4.1937   -4.9603 C.3       1 <0>        -0.1978
     21 C15         5.4108   -8.7537   -7.1451 C.ar      1 <0>         0.1534
     22 C16         4.3757   -9.2460   -7.9299 C.ar      1 <0>        -0.1357
     23 C17         4.6610   -9.9814   -9.0659 C.ar      1 <0>         0.1116
     24 C18         5.9770  -10.2277   -9.4211 C.ar      1 <0>        -0.1140
     25 C19         7.0097   -9.7395   -8.6420 C.ar      1 <0>        -0.1038
     26 C20         6.7318   -8.9981   -7.5082 C.ar      1 <0>         0.1033
     27 F1          7.7416   -8.5165   -6.7509 F         1 <0>        -0.1175
     28 F2          3.6549  -10.4607   -9.8297 F         1 <0>        -0.1249
     29 C21         4.9077   -7.6802   -2.5911 C.ar      1 <0>        -0.0768
     30 C22         4.1520   -7.6080   -1.4359 C.ar      1 <0>        -0.1058
     31 C23         4.7042   -7.9795   -0.2243 C.ar      1 <0>        -0.1144
     32 C24         6.0121   -8.4236   -0.1680 C.ar      1 <0>        -0.1097
     33 C25         6.7675   -8.4966   -1.3234 C.ar      1 <0>        -0.1121
     34 C26         6.2139   -8.1292   -2.5356 C.ar      1 <0>        -0.1085
     35 H1         -2.5727   -4.6829  -11.2642 H         1 <0>         0.0989
     36 H2         -4.0023   -4.9938  -10.2504 H         1 <0>         0.0966
     37 H3         -3.7048   -3.3606  -10.8926 H         1 <0>         0.0924
     38 H4         -2.5270   -5.8052   -8.0967 H         1 <0>         0.1740
     39 H5         -0.8441   -3.8491   -5.2577 H         1 <0>         0.1573
     40 H6         -1.6360   -5.4059   -5.6005 H         1 <0>         0.1632
     41 H7         -0.4386   -7.1768   -6.5922 H         1 <0>         0.1303
     42 H8         -0.1616   -6.1441   -8.0153 H         1 <0>         0.1240
     43 H9          1.2154   -6.9221   -7.1986 H         1 <0>         0.1266
     44 H10         0.9441   -4.8594   -4.1971 H         1 <0>         0.1400
     45 H11         0.2908   -6.4945   -4.4578 H         1 <0>         0.1379
     46 H12         2.3207   -7.1002   -5.7466 H         1 <0>         0.0848
     47 H13         2.9741   -5.4651   -5.4859 H         1 <0>         0.0905
     48 H14         2.9631   -5.8295   -3.0469 H         1 <0>         0.1032
     49 H15         2.2538   -7.4456   -3.2781 H         1 <0>         0.0881
     50 H16         4.6866   -9.3627   -4.4270 H         1 <0>         0.1009
     51 H17         3.2542   -8.6520   -5.2412 H         1 <0>         0.0941
     52 H18         6.0375   -3.5776   -5.6858 H         1 <0>         0.0952
     53 H19         7.1261   -3.5522   -4.2777 H         1 <0>         0.0909
     54 H20         7.2595   -4.8557   -5.4824 H         1 <0>         0.0887
     55 H21         3.3494   -9.0550   -7.6531 H         1 <0>         0.1443
     56 H22         6.1970  -10.8026  -10.3085 H         1 <0>         0.1580
     57 H23         8.0346   -9.9340   -8.9215 H         1 <0>         0.1608
     58 H24         3.1301   -7.2610   -1.4799 H         1 <0>         0.1237
     59 H25         4.1140   -7.9224    0.6783 H         1 <0>         0.1266
     60 H26         6.4438   -8.7131    0.7786 H         1 <0>         0.1268
     61 H27         7.7894   -8.8433   -1.2794 H         1 <0>         0.1257
     62 H28         6.8029   -8.1898   -3.4388 H         1 <0>         0.1137
     63 H29         1.0094   -4.6228   -6.6008 H         1 <0>         0.4304
@<TRIPOS>BOND
     1    1    2 1
     2    1   35 1
     3    1   36 1
     4    1   37 1
     5    2    6 2
     6    2    3 1
     7    3    4 2
     8    3   38 1
     9    4    5 1
    10    4    7 1
    11    5    6 1
    12    7    8 1
    13    7   39 1
    14    7   40 1
    15    8    9 1
    16    8   10 1
    17    8   63 1
    18    9   41 1
    19    9   42 1
    20    9   43 1
    21   10   11 1
    22   10   44 1
    23   10   45 1
    24   11   12 1
    25   11   46 1
    26   11   47 1
    27   12   13 1
    28   12   48 1
    29   12   49 1
    30   13   17 1
    31   13   14 1
    32   13   29 1
    33   14   15 1
    34   14   50 1
    35   14   51 1
    36   15   16 1
    37   15   21 1
    38   16   17 2
    39   17   18 1
    40   18   19 2
    41   18   20 1
    42   20   52 1
    43   20   53 1
    44   20   54 1
    45   21   26 ar
    46   21   22 ar
    47   22   23 ar
    48   22   55 1
    49   23   24 ar
    50   23   28 1
    51   24   25 ar
    52   24   56 1
    53   25   26 ar
    54   25   57 1
    55   26   27 1
    56   29   34 ar
    57   29   30 ar
    58   30   31 ar
    59   30   58 1
    60   31   32 ar
    61   31   59 1
    62   32   33 ar
    63   32   60 1
    64   33   34 ar
    65   33   61 1
    66   34   62 1
@<TRIPOS>MOLECULE
CHEMBL242182
   38    40     0     0     0
SMALL
USER_CHARGES

@<TRIPOS>ATOM
      1 C1          0.2518    1.3550   -0.7101 C.3       1 <0>        -0.1851
      2 C2          0.2582   -0.1727   -0.6273 C.3       1 <0>         0.2556
      3 O1          1.0877   -0.7319   -1.6626 O.3       1 <0>        -0.2977
      4 C3          2.3295   -0.8549   -1.1084 C.ar      1 <0>         0.0381
      5 C4          3.5781   -1.0278   -1.6865 C.ar      1 <0>        -0.0994
      6 C5          4.7025   -1.1266   -0.8927 C.ar      1 <0>        -0.0970
      7 C6          4.5857   -1.0526    0.4941 C.ar      1 <0>        -0.0421
      8 C7          3.3319   -0.8789    1.0770 C.ar      1 <0>        -0.0916
      9 C8          2.2070   -0.7803    0.2779 C.ar      1 <0>         0.0368
     10 O2          0.8889   -0.6106    0.5907 O.3       1 <0>        -0.2979
     11 C9          5.7938   -1.1592    1.3483 C.ar      1 <0>        -0.0284
     12 C10         5.6760   -1.0910    2.7357 C.ar      1 <0>        -0.1006
     13 C11         6.8001   -1.1908    3.5277 C.ar      1 <0>        -0.0948
     14 C12         8.0503   -1.3588    2.9437 C.ar      1 <0>         0.1176
     15 C13         8.1701   -1.4266    1.5605 C.ar      1 <0>        -0.1136
     16 C14         7.0479   -1.3335    0.7650 C.ar      1 <0>        -0.1021
     17 N1          9.1873   -1.4591    3.7476 N.pl3     1 <0>        -1.0676
     18 S1          9.4922   -2.8580    4.5798 S.o2      1 <0>         2.7969
     19 O3         10.7122   -2.6564    5.2799 O.2       1 <0>        -0.9779
     20 O4          8.2840   -3.2092    5.2402 O.2       1 <0>        -0.9723
     21 N2          9.7801   -4.0420    3.4584 N.pl3     1 <0>        -1.2591
     22 C15        -1.1672   -0.7206   -0.7216 C.3       1 <0>        -0.1472
     23 H1          1.2766    1.7249   -0.6780 H         1 <0>         0.0689
     24 H2         -0.2178    1.6663   -1.6433 H         1 <0>         0.0873
     25 H3         -0.3081    1.7622    0.1318 H         1 <0>         0.0875
     26 H4          3.6707   -1.0856   -2.7609 H         1 <0>         0.1390
     27 H5          5.6733   -1.2616   -1.3463 H         1 <0>         0.1422
     28 H6          3.2386   -0.8209    2.1514 H         1 <0>         0.1394
     29 H7          4.7049   -0.9598    3.1897 H         1 <0>         0.1347
     30 H8          6.7092   -1.1380    4.6025 H         1 <0>         0.1385
     31 H9          9.1424   -1.5568    1.1088 H         1 <0>         0.1337
     32 H10         7.1409   -1.3911   -0.3095 H         1 <0>         0.1354
     33 H11         9.7987   -0.7094    3.8187 H         1 <0>         0.4278
     34 H12         9.8198   -3.8177    2.5155 H         1 <0>         0.4146
     35 H13         9.9090   -4.9599    3.7444 H         1 <0>         0.4225
     36 H14        -1.6102   -0.4195   -1.6709 H         1 <0>         0.0899
     37 H15        -1.1430   -1.8087   -0.6609 H         1 <0>         0.0775
     38 H16        -1.7640   -0.3241    0.0998 H         1 <0>         0.0902
@<TRIPOS>BOND
     1    1    2 1
     2    1   23 1
     3    1   24 1
     4    1   25 1
     5    2   10 1
     6    2    3 1
     7    2   22 1
     8    3    4 1
     9    4    9 ar
    10    4    5 ar
    11    5    6 ar
    12    5   26 1
    13    6    7 ar
    14    6   27 1
    15    7    8 ar
    16    7   11 1
    17    8    9 ar
    18    8   28 1
    19    9   10 1
    20   11   16 ar
    21   11   12 ar
    22   12   13 ar
    23   12   29 1
    24   13   14 ar
    25   13   30 1
    26   14   15 ar
    27   14   17 1
    28   15   16 ar
    29   15   31 1
    30   16   32 1
    31   17   18 1
    32   17   33 1
    33   18   19 2
    34   18   20 2
    35   18   21 1
    36   21   34 1
    37   21   35 1
    38   22   36 1
    39   22   37 1
    40   22   38 1
@<TRIPOS>MOLECULE
CHEMBL242181
   32    34     0     0     0
SMALL
USER_CHARGES

@<TRIPOS>ATOM
      1 C1          0.0405    1.1524    0.0287 C.ar      1 <0>        -0.0942
      2 C2          1.1759    1.9336   -0.0089 C.ar      1 <0>        -0.0961
      3 C3          2.4317    1.3382    0.0176 C.ar      1 <0>         0.1212
      4 C4          2.5457   -0.0457    0.0817 C.ar      1 <0>        -0.1150
      5 C5          1.4130   -0.8307    0.1191 C.ar      1 <0>        -0.0994
      6 C6          0.1526   -0.2356    0.0935 C.ar      1 <0>        -0.0370
      7 C7         -1.0676   -1.0782    0.1347 C.ar      1 <0>        -0.0269
      8 C8         -2.3278   -0.4838    0.1028 C.ar      1 <0>        -0.0882
      9 C9         -3.4623   -1.2684    0.1406 C.ar      1 <0>        -0.0757
     10 C10        -3.3533   -2.6491    0.2103 C.ar      1 <0>         0.0287
     11 C11        -2.0955   -3.2487    0.2425 C.ar      1 <0>         0.0313
     12 C12        -0.9559   -2.4658    0.1994 C.ar      1 <0>        -0.0744
     13 O1         -2.2594   -4.6024    0.3102 O.3       1 <0>        -0.2856
     14 C13        -3.6214   -4.8041    0.7313 C.3       1 <0>         0.5714
     15 O2         -4.3038   -3.6282    0.2577 O.3       1 <0>        -0.2850
     16 F1         -3.6974   -4.8883    2.1257 F         1 <0>        -0.1515
     17 F2         -4.1541   -5.9538    0.1384 F         1 <0>        -0.1140
     18 N1          3.5800    2.1312   -0.0206 N.pl3     1 <0>        -1.0696
     19 S1          4.0527    2.9695    1.3270 S.o2      1 <0>         2.7961
     20 O3          5.2475    3.6560    0.9800 O.2       1 <0>        -0.9765
     21 O4          2.8995    3.6442    1.8109 O.2       1 <0>        -0.9702
     22 N2          4.4657    1.8530    2.4783 N.pl3     1 <0>        -1.2573
     23 H1         -0.9350    1.6156    0.0126 H         1 <0>         0.1379
     24 H2          1.0895    3.0090   -0.0595 H         1 <0>         0.1409
     25 H3          3.5223   -0.5063    0.1019 H         1 <0>         0.1359
     26 H4          1.5020   -1.9059    0.1683 H         1 <0>         0.1355
     27 H5         -2.4165    0.5912    0.0489 H         1 <0>         0.1521
     28 H6         -4.4379   -0.8058    0.1161 H         1 <0>         0.1500
     29 H7          0.0194   -2.9292    0.2198 H         1 <0>         0.1486
     30 H8          4.1011    2.1912   -0.8366 H         1 <0>         0.4288
     31 H9          5.0900    2.0900    3.1818 H         1 <0>         0.4232
     32 H10         4.0833    0.9621    2.4491 H         1 <0>         0.4149
@<TRIPOS>BOND
     1    1    6 ar
     2    1    2 ar
     3    1   23 1
     4    2    3 ar
     5    2   24 1
     6    3    4 ar
     7    3   18 1
     8    4    5 ar
     9    4   25 1
    10    5    6 ar
    11    5   26 1
    12    6    7 1
    13    7   12 ar
    14    7    8 ar
    15    8    9 ar
    16    8   27 1
    17    9   10 ar
    18    9   28 1
    19   10   15 1
    20   10   11 ar
    21   11   12 ar
    22   11   13 1
    23   12   29 1
    24   13   14 1
    25   14   15 1
    26   14   16 1
    27   14   17 1
    28   18   19 1
    29   18   30 1
    30   19   20 2
    31   19   21 2
    32   19   22 1
    33   22   31 1
    34   22   32 1
@<TRIPOS>MOLECULE
CHEMBL239414
   65    68     0     0     0
SMALL
USER_CHARGES

@<TRIPOS>ATOM
      1 C1         -9.5826    2.5981    0.3903 C.3       1 <0>        -0.1797
      2 C2         -9.5951    1.1705   -0.0921 C.2       1 <0>         0.5209
      3 O1         -9.8847    0.9219   -1.2433 O.2       1 <0>        -0.5122
      4 N1         -9.2844    0.1699    0.7558 N.am      1 <0>        -0.6382
      5 C3         -8.9361    0.4473    2.1578 C.3       1 <0>         0.0855
      6 C4         -7.6251   -0.2754    2.4847 C.3       1 <0>        -0.0217
      7 N2         -7.7609   -1.7021    2.1648 N.4       1 <0>        -0.3837
      8 C5         -7.9572   -1.8741    0.7199 C.3       1 <0>        -0.0249
      9 C6         -9.2901   -1.2310    0.3070 C.3       1 <0>         0.0899
     10 C7         -6.5444   -2.4131    2.5800 C.3       1 <0>        -0.0078
     11 C8         -6.7326   -3.9158    2.3625 C.3       1 <0>        -0.1538
     12 C9         -5.4655   -4.6564    2.7949 C.3       1 <0>        -0.1175
     13 C10        -5.6880   -6.1648    2.6678 C.3       1 <0>         0.1865
     14 C11        -6.8640   -6.6166    3.5562 C.3       1 <0>        -0.1242
     15 C12        -7.8659   -7.1813    2.5747 C.2       1 <0>         0.1314
     16 N3         -7.3964   -7.0881    1.3788 N.2       1 <0>        -0.2107
     17 N4         -6.1305   -6.5102    1.3075 N.am      1 <0>        -0.4641
     18 C13        -5.4264   -6.3017    0.1774 C.2       1 <0>         0.5490
     19 O2         -4.2935   -5.8723    0.2391 O.2       1 <0>        -0.5044
     20 C14        -6.0465   -6.6019   -1.1629 C.3       1 <0>        -0.1689
     21 C15        -9.1778   -7.7518    2.9316 C.ar      1 <0>        -0.0481
     22 C16        -9.5840   -7.7957    4.2674 C.ar      1 <0>        -0.1009
     23 C17       -10.8145   -8.3310    4.5942 C.ar      1 <0>         0.0948
     24 C18       -11.6456   -8.8244    3.6005 C.ar      1 <0>        -0.1009
     25 C19       -11.2499   -8.7846    2.2762 C.ar      1 <0>        -0.1239
     26 C20       -10.0241   -8.2462    1.9337 C.ar      1 <0>         0.1281
     27 F1         -9.6416   -8.2026    0.6387 F         1 <0>        -0.1126
     28 F2        -11.2090   -8.3743    5.8856 F         1 <0>        -0.1261
     29 C21        -4.4311   -6.9164    3.0235 C.ar      1 <0>        -0.0936
     30 C22        -3.5478   -6.3884    3.9464 C.ar      1 <0>        -0.1078
     31 C23        -2.3949   -7.0778    4.2726 C.ar      1 <0>        -0.1144
     32 C24        -2.1256   -8.2955    3.6763 C.ar      1 <0>        -0.1071
     33 C25        -3.0094   -8.8240    2.7541 C.ar      1 <0>        -0.1117
     34 C26        -4.1644   -8.1366    2.4310 C.ar      1 <0>        -0.0972
     35 H1         -9.8580    3.2612   -0.4298 H         1 <0>         0.1045
     36 H2        -10.2970    2.7124    1.2055 H         1 <0>         0.0963
     37 H3         -8.5837    2.8534    0.7441 H         1 <0>         0.0937
     38 H4         -8.8074    1.5206    2.2978 H         1 <0>         0.1337
     39 H5         -9.7284    0.0822    2.8112 H         1 <0>         0.0985
     40 H6         -6.8162    0.1541    1.8939 H         1 <0>         0.1349
     41 H7         -7.4014   -0.1605    3.5453 H         1 <0>         0.1462
     42 H8         -7.1382   -1.3962    0.1824 H         1 <0>         0.1350
     43 H9         -7.9781   -2.9372    0.4799 H         1 <0>         0.1415
     44 H10       -10.1175   -1.7628    0.7766 H         1 <0>         0.0950
     45 H11        -9.3955   -1.2679   -0.7773 H         1 <0>         0.1360
     46 H12        -5.6990   -2.0633    1.9876 H         1 <0>         0.1327
     47 H13        -6.3530   -2.2200    3.6356 H         1 <0>         0.1369
     48 H14        -7.5780   -4.2657    2.9549 H         1 <0>         0.0900
     49 H15        -6.9240   -4.1090    1.3069 H         1 <0>         0.0872
     50 H16        -4.6340   -4.3568    2.1571 H         1 <0>         0.0985
     51 H17        -5.2360   -4.4091    3.8314 H         1 <0>         0.0958
     52 H18        -6.5401   -7.3858    4.2573 H         1 <0>         0.1146
     53 H19        -7.2888   -5.7662    4.0896 H         1 <0>         0.1087
     54 H20        -6.5575   -5.7135   -1.5340 H         1 <0>         0.0946
     55 H21        -5.2670   -6.8933   -1.8668 H         1 <0>         0.0983
     56 H22        -6.7635   -7.4160   -1.0574 H         1 <0>         0.0954
     57 H23        -8.9373   -7.4123    5.0427 H         1 <0>         0.1511
     58 H24       -12.6065   -9.2422    3.8620 H         1 <0>         0.1549
     59 H25       -11.9022   -9.1715    1.5073 H         1 <0>         0.1562
     60 H26        -3.7582   -5.4370    4.4123 H         1 <0>         0.1220
     61 H27        -1.7044   -6.6649    4.9931 H         1 <0>         0.1277
     62 H28        -1.2245   -8.8338    3.9307 H         1 <0>         0.1277
     63 H29        -2.7988   -9.7752    2.2879 H         1 <0>         0.1260
     64 H30        -4.8567   -8.5512    1.7133 H         1 <0>         0.1132
     65 H31        -8.5547   -2.0821    2.6584 H         1 <0>         0.4229
@<TRIPOS>BOND
     1    1    2 1
     2    1   35 1
     3    1   36 1
     4    1   37 1
     5    2    3 2
     6    2    4 am
     7    4    9 1
     8    4    5 1
     9    5    6 1
    10    5   38 1
    11    5   39 1
    12    6    7 1
    13    6   40 1
    14    6   41 1
    15    7    8 1
    16    7   10 1
    17    7   65 1
    18    8    9 1
    19    8   42 1
    20    8   43 1
    21    9   44 1
    22    9   45 1
    23   10   11 1
    24   10   46 1
    25   10   47 1
    26   11   12 1
    27   11   48 1
    28   11   49 1
    29   12   13 1
    30   12   50 1
    31   12   51 1
    32   13   17 1
    33   13   14 1
    34   13   29 1
    35   14   15 1
    36   14   52 1
    37   14   53 1
    38   15   16 2
    39   15   21 1
    40   16   17 1
    41   17   18 am
    42   18   19 2
    43   18   20 1
    44   20   54 1
    45   20   55 1
    46   20   56 1
    47   21   26 ar
    48   21   22 ar
    49   22   23 ar
    50   22   57 1
    51   23   24 ar
    52   23   28 1
    53   24   25 ar
    54   24   58 1
    55   25   26 ar
    56   25   59 1
    57   26   27 1
    58   29   34 ar
    59   29   30 ar
    60   30   31 ar
    61   30   60 1
    62   31   32 ar
    63   31   61 1
    64   32   33 ar
    65   32   62 1
    66   33   34 ar
    67   33   63 1
    68   34   64 1
@<TRIPOS>MOLECULE
CHEMBL239414__1
   64    67     0     0     0
SMALL
USER_CHARGES

@<TRIPOS>ATOM
      1 C1         -9.6178    2.8252    0.8327 C.3       1 <0>        -0.1744
      2 C2         -9.6070    1.4554    0.2045 C.2       1 <0>         0.5120
      3 O1         -9.8757    1.3252   -0.9710 O.2       1 <0>        -0.5450
      4 N1         -9.2988    0.3750    0.9490 N.am      1 <0>        -0.6180
      5 C3         -8.9759    0.5098    2.3775 C.3       1 <0>         0.1119
      6 C4         -7.6520   -0.2131    2.6477 C.3       1 <0>         0.0396
      7 N2         -7.7442   -1.5955    2.1594 N.3       1 <0>        -0.5361
      8 C5         -7.9407   -1.6347    0.7042 C.3       1 <0>         0.0400
      9 C6         -9.2824   -0.9708    0.3558 C.3       1 <0>         0.1166
     10 C7         -6.5609   -2.3724    2.5520 C.3       1 <0>         0.0584
     11 C8         -6.7994   -3.8531    2.2491 C.3       1 <0>        -0.1152
     12 C9         -5.5670   -4.6623    2.6579 C.3       1 <0>        -0.1201
     13 C10        -5.8413   -6.1523    2.4446 C.3       1 <0>         0.1841
     14 C11        -7.0471   -6.6083    3.2899 C.3       1 <0>        -0.1212
     15 C12        -8.0526   -7.0814    2.2646 C.2       1 <0>         0.1281
     16 N3         -7.5608   -6.9402    1.0825 N.2       1 <0>        -0.2088
     17 N4         -6.2740   -6.4063    1.0612 N.am      1 <0>        -0.4577
     18 C13        -5.5446   -6.1623   -0.0456 C.2       1 <0>         0.5512
     19 O2         -4.3982   -5.7789    0.0558 O.2       1 <0>        -0.5098
     20 C14        -6.1533   -6.3658   -1.4091 C.3       1 <0>        -0.1673
     21 C15        -9.3898   -7.6218    2.5708 C.ar      1 <0>        -0.0365
     22 C16        -9.8189   -7.7238    3.8962 C.ar      1 <0>        -0.0986
     23 C17       -11.0729   -8.2305    4.1755 C.ar      1 <0>         0.0921
     24 C18       -11.9050   -8.6380    3.1444 C.ar      1 <0>        -0.1068
     25 C19       -11.4868   -8.5405    1.8301 C.ar      1 <0>        -0.1262
     26 C20       -10.2370   -8.0295    1.5352 C.ar      1 <0>         0.1273
     27 F1         -9.8323   -7.9293    0.2501 F         1 <0>        -0.1128
     28 F2        -11.4895   -8.3298    5.4569 F         1 <0>        -0.1294
     29 C21        -4.6182   -6.9679    2.7760 C.ar      1 <0>        -0.0821
     30 C22        -3.7315   -6.5239    3.7391 C.ar      1 <0>        -0.1054
     31 C23        -2.6096   -7.2721    4.0431 C.ar      1 <0>        -0.1167
     32 C24        -2.3746   -8.4644    3.3843 C.ar      1 <0>        -0.1145
     33 C25        -3.2618   -8.9089    2.4219 C.ar      1 <0>        -0.1157
     34 C26        -4.3860   -8.1628    2.1209 C.ar      1 <0>        -0.0991
     35 H1         -9.8875    3.5674    0.0813 H         1 <0>         0.0932
     36 H2        -10.3462    2.8475    1.6432 H         1 <0>         0.0892
     37 H3         -8.6275    3.0515    1.2278 H         1 <0>         0.0875
     38 H4         -8.8755    1.5649    2.6323 H         1 <0>         0.0916
     39 H5         -9.7678    0.0595    2.9760 H         1 <0>         0.0796
     40 H6         -6.8436    0.3026    2.1293 H         1 <0>         0.0395
     41 H7         -7.4525   -0.2183    3.7192 H         1 <0>         0.0900
     42 H8         -7.1283   -1.0993    0.2129 H         1 <0>         0.0388
     43 H9         -7.9506   -2.6710    0.3663 H         1 <0>         0.0877
     44 H10       -10.1032   -1.5607    0.7637 H         1 <0>         0.0754
     45 H11        -9.3848   -0.8951   -0.7267 H         1 <0>         0.0955
     46 H12        -5.6940   -2.0221    1.9918 H         1 <0>         0.0355
     47 H13        -6.3798   -2.2445    3.6192 H         1 <0>         0.0786
     48 H14        -7.6663   -4.2034    2.8093 H         1 <0>         0.0736
     49 H15        -6.9805   -3.9811    1.1819 H         1 <0>         0.0627
     50 H16        -4.7149   -4.3590    2.0495 H         1 <0>         0.0849
     51 H17        -5.3455   -4.4806    3.7096 H         1 <0>         0.0840
     52 H18        -6.7624   -7.4262    3.9519 H         1 <0>         0.1078
     53 H19        -7.4497   -5.7734    3.8634 H         1 <0>         0.1137
     54 H20        -6.6260   -5.4403   -1.7378 H         1 <0>         0.0961
     55 H21        -5.3734   -6.6468   -2.1169 H         1 <0>         0.0938
     56 H22        -6.9008   -7.1576   -1.3589 H         1 <0>         0.0928
     57 H23        -9.1714   -7.4074    4.7006 H         1 <0>         0.1517
     58 H24       -12.8844   -9.0338    3.3688 H         1 <0>         0.1513
     59 H25       -12.1401   -8.8605    1.0318 H         1 <0>         0.1533
     60 H26        -3.9151   -5.5924    4.2538 H         1 <0>         0.1249
     61 H27        -1.9165   -6.9249    4.7950 H         1 <0>         0.1249
     62 H28        -1.4977   -9.0486    3.6213 H         1 <0>         0.1234
     63 H29        -3.0780   -9.8402    1.9070 H         1 <0>         0.1222
     64 H30        -5.0810   -8.5118    1.3716 H         1 <0>         0.1128
@<TRIPOS>BOND
     1    1    2 1
     2    1   35 1
     3    1   36 1
     4    1   37 1
     5    2    3 2
     6    2    4 am
     7    4    9 1
     8    4    5 1
     9    5    6 1
    10    5   38 1
    11    5   39 1
    12    6    7 1
    13    6   40 1
    14    6   41 1
    15    7    8 1
    16    7   10 1
    17    8    9 1
    18    8   42 1
    19    8   43 1
    20    9   44 1
    21    9   45 1
    22   10   11 1
    23   10   46 1
    24   10   47 1
    25   11   12 1
    26   11   48 1
    27   11   49 1
    28   12   13 1
    29   12   50 1
    30   12   51 1
    31   13   17 1
    32   13   14 1
    33   13   29 1
    34   14   15 1
    35   14   52 1
    36   14   53 1
    37   15   16 2
    38   15   21 1
    39   16   17 1
    40   17   18 am
    41   18   19 2
    42   18   20 1
    43   20   54 1
    44   20   55 1
    45   20   56 1
    46   21   26 ar
    47   21   22 ar
    48   22   23 ar
    49   22   57 1
    50   23   24 ar
    51   23   28 1
    52   24   25 ar
    53   24   58 1
    54   25   26 ar
    55   25   59 1
    56   26   27 1
    57   29   34 ar
    58   29   30 ar
    59   30   31 ar
    60   30   60 1
    61   31   32 ar
    62   31   61 1
    63   32   33 ar
    64   32   62 1
    65   33   34 ar
    66   33   63 1
    67   34   64 1
@<TRIPOS>MOLECULE
CHEMBL1083836
   55    59     0     0     0
SMALL
USER_CHARGES

@<TRIPOS>ATOM
      1 C1         -0.0178    1.4648    0.0101 C.3       1 <0>        -0.0474
      2 N1          0.0021   -0.0041    0.0020 N.4       1 <0>        -0.5083
      3 C2          0.6897   -0.4778   -1.2066 C.3       1 <0>         0.0016
      4 C3          0.7104   -2.0077   -1.2150 C.3       1 <0>         0.0608
      5 H1         -0.3118   -2.3860   -1.2073 H         1 <0>         0.0847
      6 C4          1.4305   -2.5032   -2.4730 C.3       1 <0>        -0.1491
      7 C5          1.4695   -4.0340   -2.4475 C.3       1 <0>        -0.1171
      8 C6          2.1463   -4.5072   -1.1639 C.3       1 <0>        -0.1272
      9 H2          2.0754   -5.5931   -1.1002 H         1 <0>         0.0963
     10 C7          3.6218   -4.0976   -1.1615 C.3       1 <0>         0.2109
     11 H3          3.7037   -3.0112   -1.1281 H         1 <0>         0.0776
     12 N2          4.2452   -4.6816    0.0349 N.pl3     1 <0>        -0.7435
     13 C8          3.5631   -4.6167    1.2550 C.ar      1 <0>         0.2358
     14 C9          4.2468   -4.9206    2.4279 C.ar      1 <0>        -0.1859
     15 C10         3.5931   -4.8678    3.6423 C.ar      1 <0>        -0.0590
     16 C11         2.2572   -4.5131    3.6922 C.ar      1 <0>        -0.1033
     17 C12         1.5762   -4.2091    2.5293 C.ar      1 <0>        -0.0495
     18 C13         2.2259   -4.2568    1.3078 C.ar      1 <0>        -0.1680
     19 C14         1.4717   -3.8872    0.0574 C.3       1 <0>         0.1651
     20 H4          0.4530   -4.2660    0.1407 H         1 <0>         0.0693
     21 O1          1.4039   -2.4821   -0.0605 O.3       1 <0>        -0.3826
     22 C15         1.5427   -4.4586    5.0180 C.3       1 <0>        -0.1145
     23 C16         2.3898   -4.6068    6.2835 C.3       1 <0>        -0.1778
     24 C17         1.4747   -5.7490    5.8374 C.3       1 <0>        -0.1707
     25 C18         4.2999   -4.6230   -2.4006 C.ar      1 <0>        -0.1022
     26 C19         4.7016   -5.9443   -2.4612 C.ar      1 <0>        -0.1084
     27 C20         5.3235   -6.4262   -3.5977 C.ar      1 <0>        -0.1128
     28 C21         5.5435   -5.5870   -4.6739 C.ar      1 <0>        -0.1105
     29 C22         5.1410   -4.2659   -4.6137 C.ar      1 <0>        -0.1156
     30 C23         4.5151   -3.7850   -3.4787 C.ar      1 <0>        -0.1092
     31 H5          1.0047    1.8421    0.0024 H         1 <0>         0.1237
     32 H6         -0.5450    1.8259   -0.8730 H         1 <0>         0.1235
     33 H7         -0.5280    1.8163    0.9069 H         1 <0>         0.1271
     34 H8          0.4901   -0.3383    0.8195 H         1 <0>         0.4382
     35 H9          0.1625   -0.1167   -2.0897 H         1 <0>         0.1452
     36 H10         1.7123   -0.1005   -1.2143 H         1 <0>         0.1385
     37 H11         0.8924   -2.1661   -3.3589 H         1 <0>         0.0885
     38 H12         2.4478   -2.1120   -2.4898 H         1 <0>         0.0843
     39 H13         0.4523   -4.4238   -2.4865 H         1 <0>         0.0744
     40 H14         2.0303   -4.3973   -3.3087 H         1 <0>         0.0888
     41 H15         5.1159   -5.1056   -0.0206 H         1 <0>         0.4068
     42 H16         5.2898   -5.1983    2.3882 H         1 <0>         0.1257
     43 H17         4.1240   -5.1036    4.5527 H         1 <0>         0.1272
     44 H18         0.5329   -3.9334    2.5733 H         1 <0>         0.1188
     45 H19         0.6842   -3.7885    5.0622 H         1 <0>         0.1081
     46 H20         3.4637   -4.7436    6.1572 H         1 <0>         0.0981
     47 H21         2.0886   -4.0339    7.1606 H         1 <0>         0.0987
     48 H22         0.5716   -5.9275    6.4209 H         1 <0>         0.0983
     49 H23         1.9467   -6.6372    5.4175 H         1 <0>         0.0962
     50 H24         4.5297   -6.6000   -1.6204 H         1 <0>         0.1230
     51 H25         5.6380   -7.4584   -3.6448 H         1 <0>         0.1268
     52 H26         6.0300   -5.9633   -5.5616 H         1 <0>         0.1268
     53 H27         5.3131   -3.6101   -5.4543 H         1 <0>         0.1263
     54 H28         4.1974   -2.7539   -3.4331 H         1 <0>         0.1190
     55 H29        -0.9445   -0.3533    0.0092 H         1 <0>         0.4287
@<TRIPOS>BOND
     1    1    2 1
     2    1   31 1
     3    1   32 1
     4    1   33 1
     5    2    3 1
     6    2   34 1
     7    2   55 1
     8    3    4 1
     9    3   35 1
    10    3   36 1
    11    4    5 1
    12    4   21 1
    13    4    6 1
    14    6    7 1
    15    6   37 1
    16    6   38 1
    17    7    8 1
    18    7   39 1
    19    7   40 1
    20    8    9 1
    21    8   19 1
    22    8   10 1
    23   10   11 1
    24   10   12 1
    25   10   25 1
    26   12   13 1
    27   12   41 1
    28   13   18 ar
    29   13   14 ar
    30   14   15 ar
    31   14   42 1
    32   15   16 ar
    33   15   43 1
    34   16   17 ar
    35   16   22 1
    36   17   18 ar
    37   17   44 1
    38   18   19 1
    39   19   20 1
    40   19   21 1
    41   22   24 1
    42   22   23 1
    43   22   45 1
    44   23   24 1
    45   23   46 1
    46   23   47 1
    47   24   48 1
    48   24   49 1
    49   25   30 ar
    50   25   26 ar
    51   26   27 ar
    52   26   50 1
    53   27   28 ar
    54   27   51 1
    55   28   29 ar
    56   28   52 1
    57   29   30 ar
    58   29   53 1
    59   30   54 1
@<TRIPOS>MOLECULE
CHEMBL252340
   52    56     0     0     0
SMALL
USER_CHARGES

@<TRIPOS>ATOM
      1 C1         -1.1256    1.3108   -1.2190 C.3       1 <0>        -0.1527
      2 C2         -0.9472   -0.2015   -1.0702 C.3       1 <0>        -0.1199
      3 C3          0.0016   -0.7124   -2.1562 C.3       1 <0>        -0.1370
      4 C4          0.1800   -2.2247   -2.0073 C.3       1 <0>         0.1180
      5 N1          1.0886   -2.7139   -3.0472 N.am      1 <0>        -0.5756
      6 C5          0.6899   -3.1313   -4.2662 C.2       1 <0>         0.5289
      7 O1         -0.4465   -3.1840   -4.6851 O.2       1 <0>        -0.4573
      8 C6          1.9545   -3.5199   -5.0047 C.3       1 <0>         0.0846
      9 H1          2.1109   -2.9021   -5.8890 H         1 <0>         0.1369
     10 C7          1.9067   -5.0109   -5.3592 C.3       1 <0>        -0.0399
     11 C8          3.3132   -5.5373   -5.4969 C.2       1 <0>        -0.1501
     12 C9          3.7405   -6.7432   -6.1824 C.ar      1 <0>        -0.1005
     13 C10         3.0407   -7.7279   -6.8863 C.ar      1 <0>        -0.0645
     14 C11         3.7821   -8.7542   -7.4181 C.ar      1 <0>        -0.1467
     15 C12         5.1580   -8.8213   -7.2711 C.ar      1 <0>        -0.0944
     16 C13         5.8751   -7.8607   -6.5789 C.ar      1 <0>        -0.1302
     17 C14         5.1485   -6.8069   -6.0277 C.ar      1 <0>         0.1076
     18 N2          5.5264   -5.7152   -5.3006 N.pl3     1 <0>        -0.5725
     19 H2          6.4372   -5.5043   -5.0424 H         1 <0>         0.4189
     20 C15         4.4250   -4.9627   -4.9913 C.2       1 <0>         0.0617
     21 C16         4.4179   -3.6644   -4.2085 C.3       1 <0>         0.2956
     22 H3          4.9278   -3.7996   -3.2546 H         1 <0>         0.1244
     23 N3          3.0098   -3.3029   -3.9907 N.am      1 <0>        -0.6107
     24 C17         2.4195   -2.7966   -2.9063 C.2       1 <0>         0.7141
     25 O2          3.0182   -2.4537   -1.9057 O.2       1 <0>        -0.5333
     26 C18         5.0910   -2.5763   -5.0048 C.ar      1 <0>        -0.0923
     27 C19         6.2921   -2.0454   -4.5715 C.ar      1 <0>        -0.1098
     28 C20         6.9121   -1.0471   -5.2997 C.ar      1 <0>        -0.0987
     29 C21         6.3325   -0.5771   -6.4625 C.ar      1 <0>        -0.1350
     30 C22         5.1277   -1.1080   -6.8992 C.ar      1 <0>         0.1085
     31 C23         4.5105   -2.1141   -6.1697 C.ar      1 <0>        -0.1242
     32 O3          4.5556   -0.6474   -8.0426 O.3       1 <0>        -0.4969
     33 H4         -0.1582    1.8025   -1.1170 H         1 <0>         0.0546
     34 H5         -1.5441    1.5324   -2.2008 H         1 <0>         0.0546
     35 H6         -1.8016    1.6748   -0.4453 H         1 <0>         0.0574
     36 H7         -0.5288   -0.4231   -0.0884 H         1 <0>         0.0666
     37 H8         -1.9147   -0.6932   -1.1722 H         1 <0>         0.0661
     38 H9         -0.4168   -0.4908   -3.1379 H         1 <0>         0.0682
     39 H10         0.9690   -0.2207   -2.0542 H         1 <0>         0.0708
     40 H11         0.5985   -2.4463   -1.0256 H         1 <0>         0.0980
     41 H12        -0.7874   -2.7164   -2.1094 H         1 <0>         0.0972
     42 H13         1.3899   -5.5561   -4.5694 H         1 <0>         0.0854
     43 H14         1.3748   -5.1438   -6.3013 H         1 <0>         0.1022
     44 H15         1.9682   -7.6838   -7.0057 H         1 <0>         0.1312
     45 H16         3.2765   -9.5340   -7.9682 H         1 <0>         0.1205
     46 H17         5.6895   -9.6520   -7.7114 H         1 <0>         0.1230
     47 H18         6.9477   -7.9250   -6.4707 H         1 <0>         0.1296
     48 H19         6.7465   -2.4110   -3.6624 H         1 <0>         0.1301
     49 H20         7.8501   -0.6341   -4.9592 H         1 <0>         0.1331
     50 H21         6.8168    0.2033   -7.0306 H         1 <0>         0.1323
     51 H22         3.5748   -2.5324   -6.5103 H         1 <0>         0.1286
     52 H23         4.8276   -1.1246   -8.8385 H         1 <0>         0.3933
@<TRIPOS>BOND
     1    1    2 1
     2    1   33 1
     3    1   34 1
     4    1   35 1
     5    2    3 1
     6    2   36 1
     7    2   37 1
     8    3    4 1
     9    3   38 1
    10    3   39 1
    11    4    5 1
    12    4   40 1
    13    4   41 1
    14    5   24 am
    15    5    6 am
    16    6    7 2
    17    6    8 1
    18    8    9 1
    19    8   23 1
    20    8   10 1
    21   10   11 1
    22   10   42 1
    23   10   43 1
    24   11   20 2
    25   11   12 1
    26   12   17 ar
    27   12   13 ar
    28   13   14 ar
    29   13   44 1
    30   14   15 ar
    31   14   45 1
    32   15   16 ar
    33   15   46 1
    34   16   17 ar
    35   16   47 1
    36   17   18 1
    37   18   19 1
    38   18   20 1
    39   20   21 1
    40   21   22 1
    41   21   23 1
    42   21   26 1
    43   23   24 am
    44   24   25 2
    45   26   31 ar
    46   26   27 ar
    47   27   28 ar
    48   27   48 1
    49   28   29 ar
    50   28   49 1
    51   29   30 ar
    52   29   50 1
    53   30   31 ar
    54   30   32 1
    55   31   51 1
    56   32   52 1
@<TRIPOS>MOLECULE
CHEMBL436624
   71    74     0     0     0
SMALL
USER_CHARGES

@<TRIPOS>ATOM
      1 C1          0.9395    0.9243    4.0436 C.3       1 <0>        -0.1263
      2 C2          0.5199   -0.4176    3.5010 C.ar      1 <0>        -0.0834
      3 C3          1.0268   -0.8611    2.2926 C.ar      1 <0>        -0.0899
      4 C4          0.6467   -2.0881    1.7897 C.ar      1 <0>        -0.0620
      5 C5         -0.2514   -2.8844    2.5025 C.ar      1 <0>        -0.1095
      6 C6         -0.7598   -2.4335    3.7210 C.ar      1 <0>        -0.1455
      7 C7         -0.3675   -1.2045    4.2171 C.ar      1 <0>         0.0857
      8 F1         -0.8540   -0.7677    5.3994 F         1 <0>        -0.1366
      9 C8         -0.6625   -4.2002    1.9679 C.2       1 <0>         0.5670
     10 O1         -0.8448   -4.3413    0.7745 O.2       1 <0>        -0.5068
     11 N1         -0.8352   -5.2431    2.8040 N.am      1 <0>        -0.5836
     12 C9         -0.7932   -5.0347    4.2535 C.3       1 <0>         0.0670
     13 C10        -2.2192   -4.8947    4.7901 C.3       1 <0>        -0.2003
     14 C11        -2.1716   -4.5122    6.2708 C.3       1 <0>        -0.0123
     15 N2         -3.5357   -4.4930    6.8156 N.4       1 <0>        -0.6370
     16 C12        -1.0650   -6.5851    2.2633 C.3       1 <0>         0.1871
     17 H1         -1.0285   -6.5493    1.1745 H         1 <0>         0.1356
     18 C13         0.0018   -7.5207    2.7711 C.2       1 <0>         0.3993
     19 N3          0.6283   -7.2054    3.8638 N.2       1 <0>        -0.5196
     20 C14         1.5995   -7.9990    4.3804 C.ar      1 <0>         0.1619
     21 C15         2.2742   -7.6625    5.5553 C.ar      1 <0>        -0.1084
     22 C16         3.2536   -8.5022    6.0408 C.ar      1 <0>         0.0119
     23 C17         3.5768   -9.6785    5.3743 C.ar      1 <0>        -0.1264
     24 C18         2.9296  -10.0282    4.2218 C.ar      1 <0>        -0.0215
     25 C19         1.9348   -9.1969    3.7105 C.ar      1 <0>        -0.1918
     26 C20         1.2062   -9.5239    2.4763 C.2       1 <0>         0.5498
     27 O2          1.4459  -10.5406    1.8510 O.2       1 <0>        -0.4812
     28 N4          0.2548   -8.6535    2.0652 N.am      1 <0>        -0.5296
     29 C21        -0.5053   -8.9328    0.8443 C.3       1 <0>         0.1223
     30 C22         0.4286   -8.9391   -0.3385 C.ar      1 <0>        -0.1387
     31 C23         0.6075   -7.7889   -1.0840 C.ar      1 <0>        -0.0998
     32 C24         1.4641   -7.7947   -2.1690 C.ar      1 <0>        -0.1257
     33 C25         2.1421   -8.9507   -2.5081 C.ar      1 <0>        -0.1013
     34 C26         1.9639  -10.1007   -1.7619 C.ar      1 <0>        -0.1259
     35 C27         1.1106  -10.0937   -0.6744 C.ar      1 <0>        -0.0755
     36 Cl1         4.0938   -8.0856    7.5017 Cl        1 <0>        -0.0452
     37 C28        -2.4390   -7.0872    2.7113 C.3       1 <0>        -0.1032
     38 C29        -3.5281   -6.1936    2.1143 C.3       1 <0>        -0.1505
     39 C30        -2.6385   -8.5255    2.2294 C.3       1 <0>        -0.1796
     40 H2          1.8284    0.8040    4.6629 H         1 <0>         0.0839
     41 H3          1.1619    1.5976    3.2158 H         1 <0>         0.0816
     42 H4          0.1317    1.3419    4.6447 H         1 <0>         0.0752
     43 H5          1.7216   -0.2449    1.7413 H         1 <0>         0.1468
     44 H6          1.0432   -2.4320    0.8458 H         1 <0>         0.1431
     45 H7         -1.4550   -3.0449    4.2772 H         1 <0>         0.1460
     46 H8         -0.3080   -5.8869    4.7292 H         1 <0>         0.1459
     47 H9         -0.2313   -4.1270    4.4739 H         1 <0>         0.1062
     48 H10        -2.7433   -4.1194    4.2312 H         1 <0>         0.0953
     49 H11        -2.7449   -5.8428    4.6765 H         1 <0>         0.1067
     50 H12        -1.5731   -5.2423    6.8156 H         1 <0>         0.1431
     51 H13        -1.7242   -3.5239    6.3766 H         1 <0>         0.1367
     52 H14        -3.9203   -5.4255    6.7925 H         1 <0>         0.4360
     53 H15        -3.5126   -4.1622    7.7686 H         1 <0>         0.4412
     54 H16         2.0307   -6.7504    6.0799 H         1 <0>         0.1475
     55 H17         4.3475  -10.3228    5.7708 H         1 <0>         0.1482
     56 H18         3.1874  -10.9440    3.7108 H         1 <0>         0.1507
     57 H19        -0.9879   -9.9062    0.9314 H         1 <0>         0.1064
     58 H20        -1.2637   -8.1625    0.7043 H         1 <0>         0.1181
     59 H21         0.0778   -6.8858   -0.8191 H         1 <0>         0.1205
     60 H22         1.6034   -6.8963   -2.7519 H         1 <0>         0.1254
     61 H23         2.8108   -8.9554   -3.3561 H         1 <0>         0.1256
     62 H24         2.4934  -11.0039   -2.0271 H         1 <0>         0.1259
     63 H25         0.9742  -10.9911   -0.0893 H         1 <0>         0.1394
     64 H26        -2.5000   -7.0567    3.7992 H         1 <0>         0.0872
     65 H27        -3.4671   -6.2240    1.0264 H         1 <0>         0.0698
     66 H28        -4.5070   -6.5512    2.4335 H         1 <0>         0.0676
     67 H29        -3.3859   -5.1689    2.4576 H         1 <0>         0.0570
     68 H30        -1.7962   -9.1371    2.5527 H         1 <0>         0.0645
     69 H31        -3.5608   -8.9253    2.6509 H         1 <0>         0.0746
     70 H32        -2.7007   -8.5388    1.1412 H         1 <0>         0.0775
     71 H33        -4.1112   -3.8780    6.2600 H         1 <0>         0.4356
@<TRIPOS>BOND
     1    1    2 1
     2    1   40 1
     3    1   41 1
     4    1   42 1
     5    2    7 ar
     6    2    3 ar
     7    3    4 ar
     8    3   43 1
     9    4    5 ar
    10    4   44 1
    11    5    6 ar
    12    5    9 1
    13    6    7 ar
    14    6   45 1
    15    7    8 1
    16    9   10 2
    17    9   11 am
    18   11   12 1
    19   11   16 1
    20   12   13 1
    21   12   46 1
    22   12   47 1
    23   13   14 1
    24   13   48 1
    25   13   49 1
    26   14   15 1
    27   14   50 1
    28   14   51 1
    29   15   52 1
    30   15   53 1
    31   15   71 1
    32   16   17 1
    33   16   18 1
    34   16   37 1
    35   18   28 1
    36   18   19 2
    37   19   20 1
    38   20   25 ar
    39   20   21 ar
    40   21   22 ar
    41   21   54 1
    42   22   23 ar
    43   22   36 1
    44   23   24 ar
    45   23   55 1
    46   24   25 ar
    47   24   56 1
    48   25   26 1
    49   26   27 2
    50   26   28 am
    51   28   29 1
    52   29   30 1
    53   29   57 1
    54   29   58 1
    55   30   35 ar
    56   30   31 ar
    57   31   32 ar
    58   31   59 1
    59   32   33 ar
    60   32   60 1
    61   33   34 ar
    62   33   61 1
    63   34   35 ar
    64   34   62 1
    65   35   63 1
    66   37   38 1
    67   37   39 1
    68   37   64 1
    69   38   65 1
    70   38   66 1
    71   38   67 1
    72   39   68 1
    73   39   69 1
    74   39   70 1
@<TRIPOS>MOLECULE
CHEMBL397673
   35    37     0     0     0
SMALL
USER_CHARGES

@<TRIPOS>ATOM
      1 C1          0.0405    1.1524    0.0287 C.ar      1 <0>        -0.0936
      2 C2          1.1759    1.9336   -0.0089 C.ar      1 <0>        -0.0963
      3 C3          2.4317    1.3382    0.0176 C.ar      1 <0>         0.1221
      4 C4          2.5457   -0.0457    0.0817 C.ar      1 <0>        -0.1151
      5 C5          1.4130   -0.8307    0.1191 C.ar      1 <0>        -0.0985
      6 C6          0.1526   -0.2356    0.0935 C.ar      1 <0>        -0.0391
      7 C7         -1.0676   -1.0782    0.1347 C.ar      1 <0>        -0.0252
      8 C8         -2.3280   -0.4842    0.1029 C.ar      1 <0>        -0.0882
      9 C9         -3.4614   -1.2694    0.1426 C.ar      1 <0>        -0.0829
     10 C10        -3.3522   -2.6515    0.2136 C.ar      1 <0>         0.0501
     11 C11        -2.0968   -3.2498    0.2433 C.ar      1 <0>         0.0541
     12 C12        -0.9563   -2.4654    0.1994 C.ar      1 <0>        -0.0826
     13 O1         -1.9719   -4.6039    0.3048 O.3       1 <0>        -0.2960
     14 C13        -3.1293   -5.3392    0.7165 C.3       1 <0>         0.4136
     15 C14        -4.3413   -4.7977   -0.0536 C.3       1 <0>         0.4129
     16 O2         -4.4839   -3.4071    0.2557 O.3       1 <0>        -0.2950
     17 F1         -4.1364   -4.9568   -1.4283 F         1 <0>        -0.1490
     18 F2         -5.4943   -5.4881    0.3353 F         1 <0>        -0.1209
     19 F3         -2.9539   -6.6965    0.4263 F         1 <0>        -0.1209
     20 F4         -3.3304   -5.1719    2.0908 F         1 <0>        -0.1487
     21 N1          3.5800    2.1312   -0.0206 N.pl3     1 <0>        -1.0697
     22 S1          4.0527    2.9695    1.3270 S.o2      1 <0>         2.7960
     23 O3          5.2475    3.6560    0.9800 O.2       1 <0>        -0.9763
     24 O4          2.8995    3.6442    1.8109 O.2       1 <0>        -0.9702
     25 N2          4.4657    1.8530    2.4783 N.pl3     1 <0>        -1.2573
     26 H1         -0.9350    1.6156    0.0126 H         1 <0>         0.1379
     27 H2          1.0895    3.0090   -0.0595 H         1 <0>         0.1411
     28 H3          3.5223   -0.5063    0.1019 H         1 <0>         0.1362
     29 H4          1.5020   -1.9059    0.1683 H         1 <0>         0.1356
     30 H5         -2.4173    0.5907    0.0475 H         1 <0>         0.1515
     31 H6         -4.4373   -0.8073    0.1189 H         1 <0>         0.1543
     32 H7          0.0191   -2.9287    0.2197 H         1 <0>         0.1529
     33 H8          4.1011    2.1912   -0.8366 H         1 <0>         0.4289
     34 H9          5.0900    2.0900    3.1818 H         1 <0>         0.4232
     35 H10         4.0833    0.9621    2.4491 H         1 <0>         0.4149
@<TRIPOS>BOND
     1    1    6 ar
     2    1    2 ar
     3    1   26 1
     4    2    3 ar
     5    2   27 1
     6    3    4 ar
     7    3   21 1
     8    4    5 ar
     9    4   28 1
    10    5    6 ar
    11    5   29 1
    12    6    7 1
    13    7   12 ar
    14    7    8 ar
    15    8    9 ar
    16    8   30 1
    17    9   10 ar
    18    9   31 1
    19   10   16 1
    20   10   11 ar
    21   11   12 ar
    22   11   13 1
    23   12   32 1
    24   13   14 1
    25   14   15 1
    26   14   19 1
    27   14   20 1
    28   15   16 1
    29   15   17 1
    30   15   18 1
    31   21   22 1
    32   21   33 1
    33   22   23 2
    34   22   24 2
    35   22   25 1
    36   25   34 1
    37   25   35 1
@<TRIPOS>MOLECULE
CHEMBL244329
   35    37     0     0     0
SMALL
USER_CHARGES

@<TRIPOS>ATOM
      1 C1          0.0401    1.1527    0.0298 C.ar      1 <0>        -0.0966
      2 C2          1.1755    1.9338   -0.0082 C.ar      1 <0>        -0.0945
      3 C3          2.4312    1.3383    0.0181 C.ar      1 <0>         0.1236
      4 C4          2.5452   -0.0456    0.0827 C.ar      1 <0>        -0.1123
      5 C5          1.4124   -0.8305    0.1204 C.ar      1 <0>        -0.1011
      6 C6          0.1520   -0.2354    0.0946 C.ar      1 <0>        -0.0376
      7 C7         -1.0682   -1.0779    0.1361 C.ar      1 <0>        -0.0605
      8 C8         -2.3290   -0.4838    0.1046 C.ar      1 <0>        -0.0429
      9 C9         -3.4603   -1.2703    0.1444 C.ar      1 <0>        -0.1193
     10 C10        -3.3469   -2.6536    0.2149 C.ar      1 <0>         0.1583
     11 C11        -2.0937   -3.2476    0.2436 C.ar      1 <0>        -0.2452
     12 C12        -0.9572   -2.4652    0.2009 C.ar      1 <0>        -0.0258
     13 C13        -1.9615   -4.7483    0.3107 C.3       1 <0>         0.5138
     14 O1         -3.2127   -5.3164    0.7090 O.3       1 <0>        -0.3887
     15 C14        -4.3232   -4.8067   -0.0389 C.3       1 <0>         0.6046
     16 O2         -4.4728   -3.4154    0.2574 O.3       1 <0>        -0.3062
     17 F1         -4.0836   -4.9724   -1.4072 F         1 <0>        -0.1606
     18 F2         -5.4878   -5.4920    0.3237 F         1 <0>        -0.0981
     19 F3         -1.6041   -5.2424   -0.9484 F         1 <0>        -0.1670
     20 F4         -0.9760   -5.0890    1.2435 F         1 <0>        -0.1367
     21 N1          3.5797    2.1312   -0.0210 N.pl3     1 <0>        -1.0687
     22 S1          4.0529    2.9699    1.3262 S.o2      1 <0>         2.7969
     23 O3          5.2477    3.6561    0.9785 O.2       1 <0>        -0.9763
     24 O4          2.9000    3.6450    1.8102 O.2       1 <0>        -0.9720
     25 N2          4.4661    1.8539    2.4777 N.pl3     1 <0>        -1.2591
     26 H1         -0.9354    1.6160    0.0139 H         1 <0>         0.1368
     27 H2          1.0892    3.0092   -0.0587 H         1 <0>         0.1409
     28 H3          3.5218   -0.5062    0.1030 H         1 <0>         0.1356
     29 H4          1.5014   -1.9057    0.1699 H         1 <0>         0.1340
     30 H5         -2.4192    0.5909    0.0487 H         1 <0>         0.1533
     31 H6         -4.4372   -0.8104    0.1211 H         1 <0>         0.1563
     32 H7          0.0182   -2.9283    0.2218 H         1 <0>         0.1484
     33 H8          4.1003    2.1908   -0.8372 H         1 <0>         0.4289
     34 H9          4.4707    0.9091    2.2579 H         1 <0>         0.4146
     35 H10         4.7036    2.1449    3.3721 H         1 <0>         0.4230
@<TRIPOS>BOND
     1    1    6 ar
     2    1    2 ar
     3    1   26 1
     4    2    3 ar
     5    2   27 1
     6    3    4 ar
     7    3   21 1
     8    4    5 ar
     9    4   28 1
    10    5    6 ar
    11    5   29 1
    12    6    7 1
    13    7   12 ar
    14    7    8 ar
    15    8    9 ar
    16    8   30 1
    17    9   10 ar
    18    9   31 1
    19   10   16 1
    20   10   11 ar
    21   11   12 ar
    22   11   13 1
    23   12   32 1
    24   13   14 1
    25   13   19 1
    26   13   20 1
    27   14   15 1
    28   15   16 1
    29   15   17 1
    30   15   18 1
    31   21   22 1
    32   21   33 1
    33   22   23 2
    34   22   24 2
    35   22   25 1
    36   25   34 1
    37   25   35 1
@<TRIPOS>MOLECULE
CHEMBL535161
   66    69     0     0     0
SMALL
USER_CHARGES

@<TRIPOS>ATOM
      1 C1         -1.0402    0.8688    0.3838 C.3       1 <0>        -0.1490
      2 C2         -0.7252   -0.5071   -0.2066 C.3       1 <0>        -0.1309
      3 C3          0.1346   -0.3392   -1.4610 C.3       1 <0>         0.1894
      4 C4          0.3751   -1.6876   -2.0893 C.2       1 <0>         0.3745
      5 N1          1.1625   -2.5175   -1.4918 N.2       1 <0>        -0.3098
      6 N2          1.4253   -3.7854   -2.0254 N.pl3     1 <0>        -0.2701
      7 C5          2.1902   -4.8133   -1.6088 C.2       1 <0>         0.0573
      8 C6          2.0969   -5.8297   -2.5043 C.2       1 <0>        -0.1807
      9 C7          1.2358   -5.4229   -3.5282 C.2       1 <0>        -0.0092
     10 C8          0.8233   -4.1450   -3.2176 C.2       1 <0>        -0.0942
     11 C9         -0.0630   -3.1818   -3.8694 C.2       1 <0>         0.5790
     12 O1         -0.6160   -3.4521   -4.9203 O.2       1 <0>        -0.4555
     13 N3         -0.2564   -1.9855   -3.2710 N.am      1 <0>        -0.5440
     14 C10        -1.1419   -0.9969   -3.8914 C.3       1 <0>         0.1316
     15 C11        -0.3835   -0.2367   -4.9487 C.ar      1 <0>        -0.1308
     16 C12         0.2735    0.9345   -4.6204 C.ar      1 <0>        -0.1092
     17 C13         0.9692    1.6318   -5.5903 C.ar      1 <0>        -0.1205
     18 C14         1.0083    1.1578   -6.8882 C.ar      1 <0>        -0.1031
     19 C15         0.3521   -0.0138   -7.2162 C.ar      1 <0>        -0.1211
     20 C16        -0.3400   -0.7134   -6.2455 C.ar      1 <0>        -0.0871
     21 Cl1         0.7754   -6.3489   -4.9226 Cl        1 <0>        -0.0047
     22 N4          1.4181    0.2655   -1.0959 N.am      1 <0>        -0.5976
     23 C17         2.4807   -0.5628   -0.5205 C.3       1 <0>         0.0968
     24 C18         3.3316   -1.1549   -1.6458 C.3       1 <0>        -0.2057
     25 C19         4.4893   -1.9535   -1.0435 C.3       1 <0>        -0.0099
     26 N5          5.3727   -2.4224   -2.1195 N.4       1 <0>        -0.6383
     27 C20         1.6213    1.5837   -1.2894 C.2       1 <0>         0.5666
     28 O2          0.7282    2.2773   -1.7354 O.2       1 <0>        -0.5060
     29 C21         2.9304    2.1861   -0.9593 C.ar      1 <0>        -0.1421
     30 C22         4.0705    1.3849   -0.8792 C.ar      1 <0>        -0.1471
     31 C23         5.2892    1.9534   -0.5712 C.ar      1 <0>        -0.1368
     32 C24         5.3827    3.3146   -0.3414 C.ar      1 <0>        -0.0466
     33 C25         4.2563    4.1144   -0.4188 C.ar      1 <0>        -0.1209
     34 C26         3.0327    3.5595   -0.7320 C.ar      1 <0>        -0.0458
     35 C27         6.7171    3.9286   -0.0049 C.3       1 <0>        -0.1281
     36 H1         -0.1102    1.3734    0.6456 H         1 <0>         0.0569
     37 H2         -1.5821    1.4641   -0.3511 H         1 <0>         0.0660
     38 H3         -1.6527    0.7491    1.2774 H         1 <0>         0.0688
     39 H4         -0.1833   -1.1024    0.5283 H         1 <0>         0.0830
     40 H5         -1.6552   -1.0117   -0.4684 H         1 <0>         0.0840
     41 H6         -0.3819    0.3059   -2.1717 H         1 <0>         0.1400
     42 H7          2.7835   -4.8265   -0.7065 H         1 <0>         0.1849
     43 H8          2.5989   -6.7836   -2.4376 H         1 <0>         0.1726
     44 H9         -1.9908   -1.5056   -4.3482 H         1 <0>         0.1176
     45 H10        -1.5003   -0.3026   -3.1314 H         1 <0>         0.1090
     46 H11         0.2430    1.3048   -3.6064 H         1 <0>         0.1324
     47 H12         1.4819    2.5472   -5.3340 H         1 <0>         0.1244
     48 H13         1.5512    1.7030   -7.6461 H         1 <0>         0.1262
     49 H14         0.3823   -0.3840   -8.2304 H         1 <0>         0.1277
     50 H15        -0.8496   -1.6307   -6.5009 H         1 <0>         0.1329
     51 H16         3.1089    0.0498    0.1262 H         1 <0>         0.1139
     52 H17         2.0369   -1.3698    0.0625 H         1 <0>         0.1154
     53 H18         2.7161   -1.8134   -2.2587 H         1 <0>         0.1049
     54 H19         3.7285   -0.3494   -2.2636 H         1 <0>         0.1036
     55 H20         5.0535   -1.3174   -0.3615 H         1 <0>         0.1414
     56 H21         4.0945   -2.8107   -0.4981 H         1 <0>         0.1420
     57 H22         6.0895   -3.0170   -1.7311 H         1 <0>         0.4423
     58 H23         4.8332   -2.9432   -2.7946 H         1 <0>         0.4357
     59 H24         3.9987    0.3221   -1.0576 H         1 <0>         0.1601
     60 H25         6.1721    1.3345   -0.5089 H         1 <0>         0.1250
     61 H26         4.3360    5.1762   -0.2380 H         1 <0>         0.1361
     62 H27         2.1552    4.1856   -0.7969 H         1 <0>         0.1397
     63 H28         7.2189    4.2330   -0.9234 H         1 <0>         0.0798
     64 H29         6.5658    4.7999    0.6324 H         1 <0>         0.0758
     65 H30         7.3318    3.1971    0.5197 H         1 <0>         0.0715
     66 H31         5.8022   -1.6293   -2.5717 H         1 <0>         0.4363
@<TRIPOS>BOND
     1    1    2 1
     2    1   36 1
     3    1   37 1
     4    1   38 1
     5    2    3 1
     6    2   39 1
     7    2   40 1
     8    3    4 1
     9    3   22 1
    10    3   41 1
    11    4   13 1
    12    4    5 2
    13    5    6 1
    14    6   10 1
    15    6    7 1
    16    7    8 2
    17    7   42 1
    18    8    9 1
    19    8   43 1
    20    9   10 2
    21    9   21 1
    22   10   11 1
    23   11   12 2
    24   11   13 am
    25   13   14 1
    26   14   15 1
    27   14   44 1
    28   14   45 1
    29   15   20 ar
    30   15   16 ar
    31   16   17 ar
    32   16   46 1
    33   17   18 ar
    34   17   47 1
    35   18   19 ar
    36   18   48 1
    37   19   20 ar
    38   19   49 1
    39   20   50 1
    40   22   23 1
    41   22   27 am
    42   23   24 1
    43   23   51 1
    44   23   52 1
    45   24   25 1
    46   24   53 1
    47   24   54 1
    48   25   26 1
    49   25   55 1
    50   25   56 1
    51   26   57 1
    52   26   58 1
    53   26   66 1
    54   27   28 2
    55   27   29 1
    56   29   34 ar
    57   29   30 ar
    58   30   31 ar
    59   30   59 1
    60   31   32 ar
    61   31   60 1
    62   32   33 ar
    63   32   35 1
    64   33   34 ar
    65   33   61 1
    66   34   62 1
    67   35   63 1
    68   35   64 1
    69   35   65 1
@<TRIPOS>MOLECULE
CHEMBL535161__1
   66    69     0     0     0
SMALL
USER_CHARGES

@<TRIPOS>ATOM
      1 C1         -0.2153    0.3675    0.1269 C.3       1 <0>        -0.1690
      2 C2         -0.0384   -1.0380   -0.4513 C.3       1 <0>        -0.1369
      3 C3          0.7478   -0.9553   -1.7612 C.3       1 <0>         0.1484
      4 C4          1.0313   -2.3468   -2.2656 C.2       1 <0>         0.3623
      5 N1          0.0406   -3.1545   -2.4437 N.2       1 <0>        -0.3053
      6 N2          0.2398   -4.4598   -2.9107 N.pl3     1 <0>        -0.2654
      7 C5         -0.6042   -5.4762   -3.1750 C.2       1 <0>         0.0816
      8 C6          0.1092   -6.5455   -3.6123 C.2       1 <0>        -0.1839
      9 C7          1.4603   -6.1855   -3.6233 C.2       1 <0>        -0.0044
     10 C8          1.5286   -4.8812   -3.1833 C.2       1 <0>        -0.1012
     11 C9          2.6289   -3.9418   -2.9705 C.2       1 <0>         0.5829
     12 O1          3.7808   -4.2662   -3.1962 O.2       1 <0>        -0.4629
     13 N3          2.3321   -2.7018   -2.5221 N.am      1 <0>        -0.5466
     14 C10         3.4074   -1.7315   -2.3024 C.3       1 <0>         0.1184
     15 C11         3.9984   -1.9384   -0.9316 C.ar      1 <0>        -0.1203
     16 C12         3.4065   -1.3528    0.1718 C.ar      1 <0>        -0.1168
     17 C13         3.9486   -1.5426    1.4292 C.ar      1 <0>        -0.1189
     18 C14         5.0824   -2.3184    1.5831 C.ar      1 <0>        -0.1025
     19 C15         5.6737   -2.9047    0.4798 C.ar      1 <0>        -0.1131
     20 C16         5.1291   -2.7184   -0.7770 C.ar      1 <0>        -0.0845
     21 Cl1         2.7949   -7.1886   -4.0992 Cl        1 <0>        -0.0097
     22 N4         -0.0395   -0.2255   -2.7581 N.am      1 <0>        -0.5969
     23 C17        -1.4048   -0.6549   -3.0706 C.3       1 <0>         0.1092
     24 C18        -2.3987    0.1644   -2.2450 C.3       1 <0>        -0.1821
     25 C19        -3.8247   -0.2840   -2.5715 C.3       1 <0>        -0.0060
     26 N5         -4.7790    0.5027   -1.7788 N.4       1 <0>        -0.6367
     27 C20         0.4923    0.8410   -3.3876 C.2       1 <0>         0.5713
     28 O2         -0.1867    1.4945   -4.1553 O.2       1 <0>        -0.5088
     29 C21         1.9016    1.2160   -3.1444 C.ar      1 <0>        -0.1570
     30 C22         2.4317    1.1509   -1.8549 C.ar      1 <0>        -0.1269
     31 C23         3.7477    1.5018   -1.6349 C.ar      1 <0>        -0.1155
     32 C24         4.5414    1.9179   -2.6891 C.ar      1 <0>        -0.0451
     33 C25         4.0219    1.9851   -3.9697 C.ar      1 <0>        -0.1140
     34 C26         2.7093    1.6311   -4.2043 C.ar      1 <0>        -0.0551
     35 C27         5.9779    2.3002   -2.4412 C.3       1 <0>        -0.1281
     36 H1          0.7502    0.7470    0.4612 H         1 <0>         0.0674
     37 H2         -0.6194    1.0278   -0.6404 H         1 <0>         0.0637
     38 H3         -0.9029    0.3289    0.9719 H         1 <0>         0.0759
     39 H4          0.5062   -1.6579    0.2609 H         1 <0>         0.0928
     40 H5         -1.0172   -1.4782   -0.6421 H         1 <0>         0.0885
     41 H6          1.6887   -0.4330   -1.5879 H         1 <0>         0.1627
     42 H7         -1.6773   -5.4454   -3.0573 H         1 <0>         0.1864
     43 H8         -0.2954   -7.5045   -3.9005 H         1 <0>         0.1729
     44 H9          4.1819   -1.8704   -3.0567 H         1 <0>         0.1119
     45 H10         3.0055   -0.7209   -2.3760 H         1 <0>         0.1118
     46 H11         2.5207   -0.7467    0.0515 H         1 <0>         0.1103
     47 H12         3.4866   -1.0845    2.2912 H         1 <0>         0.1273
     48 H13         5.5063   -2.4661    2.5654 H         1 <0>         0.1286
     49 H14         6.5597   -3.5105    0.6000 H         1 <0>         0.1298
     50 H15         5.5890   -3.1795   -1.6386 H         1 <0>         0.1319
     51 H16        -1.6001   -0.5010   -4.1319 H         1 <0>         0.0950
     52 H17        -1.5172   -1.7121   -2.8301 H         1 <0>         0.1123
     53 H18        -2.2034    0.0105   -1.1838 H         1 <0>         0.0980
     54 H19        -2.2863    1.2216   -2.4856 H         1 <0>         0.0978
     55 H20        -4.0200   -0.1301   -3.6328 H         1 <0>         0.1378
     56 H21        -3.9371   -1.3412   -2.3310 H         1 <0>         0.1374
     57 H22        -5.7193    0.2069   -1.9941 H         1 <0>         0.4401
     58 H23        -4.5982    0.3601   -0.7964 H         1 <0>         0.4347
     59 H24         1.8130    0.8270   -1.0311 H         1 <0>         0.1394
     60 H25         4.1591    1.4520   -0.6376 H         1 <0>         0.1380
     61 H26         4.6466    2.3111   -4.7882 H         1 <0>         0.1395
     62 H27         2.3064    1.6793   -5.2052 H         1 <0>         0.1370
     63 H28         6.6118    1.4200   -2.5488 H         1 <0>         0.0823
     64 H29         6.2822    3.0575   -3.1637 H         1 <0>         0.0761
     65 H30         6.0787    2.6994   -1.4320 H         1 <0>         0.0751
     66 H31        -4.6749    1.4813   -2.0015 H         1 <0>         0.4368
@<TRIPOS>BOND
     1    1    2 1
     2    1   36 1
     3    1   37 1
     4    1   38 1
     5    2    3 1
     6    2   39 1
     7    2   40 1
     8    3    4 1
     9    3   22 1
    10    3   41 1
    11    4   13 1
    12    4    5 2
    13    5    6 1
    14    6   10 1
    15    6    7 1
    16    7    8 2
    17    7   42 1
    18    8    9 1
    19    8   43 1
    20    9   10 2
    21    9   21 1
    22   10   11 1
    23   11   12 2
    24   11   13 am
    25   13   14 1
    26   14   15 1
    27   14   44 1
    28   14   45 1
    29   15   20 ar
    30   15   16 ar
    31   16   17 ar
    32   16   46 1
    33   17   18 ar
    34   17   47 1
    35   18   19 ar
    36   18   48 1
    37   19   20 ar
    38   19   49 1
    39   20   50 1
    40   22   23 1
    41   22   27 am
    42   23   24 1
    43   23   51 1
    44   23   52 1
    45   24   25 1
    46   24   53 1
    47   24   54 1
    48   25   26 1
    49   25   55 1
    50   25   56 1
    51   26   57 1
    52   26   58 1
    53   26   66 1
    54   27   28 2
    55   27   29 1
    56   29   34 ar
    57   29   30 ar
    58   30   31 ar
    59   30   59 1
    60   31   32 ar
    61   31   60 1
    62   32   33 ar
    63   32   35 1
    64   33   34 ar
    65   33   61 1
    66   34   62 1
    67   35   63 1
    68   35   64 1
    69   35   65 1
@<TRIPOS>MOLECULE
CHEMBL250127
   50    53     0     0     0
SMALL
USER_CHARGES

@<TRIPOS>ATOM
      1 C1          0.8021    1.1629    1.1136 C.3       1 <0>        -0.1977
      2 C2          0.5463   -0.2769    0.7497 C.2       1 <0>         0.4329
      3 O1          1.4602   -1.0773    0.7586 O.2       1 <0>        -0.4508
      4 C3         -0.7514   -0.6945    0.3996 C.2       1 <0>        -0.0924
      5 N1         -1.8212    0.0499    0.4043 N.2       1 <0>        -0.1176
      6 N2         -2.8859   -0.5054   -0.0070 N.pl3     1 <0>        -0.3726
      7 C4         -4.0987    0.0677   -0.4055 C.ar      1 <0>         0.1233
      8 C5         -4.4926    1.3186    0.0286 C.ar      1 <0>        -0.1302
      9 C6         -5.6997    1.8447   -0.4025 C.ar      1 <0>         0.1016
     10 C7         -6.5017    1.1150   -1.2643 C.ar      1 <0>        -0.1217
     11 C8         -6.1111   -0.1382   -1.6961 C.ar      1 <0>        -0.0886
     12 C9         -4.9070   -0.6779   -1.2689 C.ar      1 <0>         0.0984
     13 O2         -4.5371   -1.9182   -1.6785 O.3       1 <0>        -0.3037
     14 C10        -3.1714   -2.3267   -1.5565 C.3       1 <0>         0.0593
     15 C11        -2.6773   -1.9688   -0.1510 C.3       1 <0>         0.0443
     16 H1         -3.1945   -2.5381    0.6212 H         1 <0>         0.1228
     17 C12        -1.1462   -2.0889   -0.0555 C.3       1 <0>         0.0176
     18 C13        -0.7456   -3.1375    0.9842 C.3       1 <0>        -0.0988
     19 C14        -1.3524   -2.7694    2.3397 C.3       1 <0>        -0.1589
     20 C15        -0.8502   -3.7458    3.4053 C.3       1 <0>        -0.0070
     21 N3         -1.4328   -3.3924    4.7067 N.4       1 <0>        -0.6384
     22 C16        -0.5434   -2.4079   -1.3993 C.ar      1 <0>        -0.0842
     23 C17         0.1391   -1.4312   -2.1001 C.ar      1 <0>        -0.0994
     24 C18         0.6920   -1.7238   -3.3328 C.ar      1 <0>        -0.1099
     25 C19         0.5629   -2.9933   -3.8645 C.ar      1 <0>        -0.1065
     26 C20        -0.1188   -3.9703   -3.1633 C.ar      1 <0>        -0.1113
     27 C21        -0.6680   -3.6788   -1.9287 C.ar      1 <0>        -0.1186
     28 F1         -6.0938    3.0668    0.0173 F         1 <0>        -0.1262
     29 H2          1.8571    1.2952    1.3532 H         1 <0>         0.0891
     30 H3          0.5377    1.8029    0.2717 H         1 <0>         0.0959
     31 H4          0.1964    1.4322    1.9789 H         1 <0>         0.0928
     32 H5         -3.8632    1.8832    0.7005 H         1 <0>         0.1513
     33 H6         -7.4406    1.5289   -1.6015 H         1 <0>         0.1539
     34 H7         -6.7446   -0.6984   -2.3678 H         1 <0>         0.1559
     35 H8         -3.0968   -3.4037   -1.7073 H         1 <0>         0.1295
     36 H9         -2.5665   -1.8079   -2.3002 H         1 <0>         0.0854
     37 H10        -1.1143   -4.1154    0.6746 H         1 <0>         0.0875
     38 H11         0.3406   -3.1687    1.0689 H         1 <0>         0.1055
     39 H12        -1.0556   -1.7553    2.6073 H         1 <0>         0.0891
     40 H13        -2.4392   -2.8258    2.2786 H         1 <0>         0.0855
     41 H14        -1.1470   -4.7599    3.1376 H         1 <0>         0.1373
     42 H15         0.2366   -3.6894    3.4664 H         1 <0>         0.1389
     43 H16        -1.1017   -4.0363    5.4094 H         1 <0>         0.4403
     44 H17        -1.1581   -2.4537    4.9544 H         1 <0>         0.4357
     45 H18         0.2400   -0.4394   -1.6848 H         1 <0>         0.1159
     46 H19         1.2246   -0.9605   -3.8807 H         1 <0>         0.1279
     47 H20         0.9943   -3.2217   -4.8279 H         1 <0>         0.1292
     48 H21        -0.2200   -4.9620   -3.5788 H         1 <0>         0.1297
     49 H22        -1.1974   -4.4431   -1.3791 H         1 <0>         0.1231
     50 H23        -2.4389   -3.4445    4.6501 H         1 <0>         0.4346
@<TRIPOS>BOND
     1    1    2 1
     2    1   29 1
     3    1   30 1
     4    1   31 1
     5    2    3 2
     6    2    4 1
     7    4   17 1
     8    4    5 2
     9    5    6 1
    10    6   15 1
    11    6    7 1
    12    7   12 ar
    13    7    8 ar
    14    8    9 ar
    15    8   32 1
    16    9   10 ar
    17    9   28 1
    18   10   11 ar
    19   10   33 1
    20   11   12 ar
    21   11   34 1
    22   12   13 1
    23   13   14 1
    24   14   15 1
    25   14   35 1
    26   14   36 1
    27   15   16 1
    28   15   17 1
    29   17   18 1
    30   17   22 1
    31   18   19 1
    32   18   37 1
    33   18   38 1
    34   19   20 1
    35   19   39 1
    36   19   40 1
    37   20   21 1
    38   20   41 1
    39   20   42 1
    40   21   43 1
    41   21   44 1
    42   21   50 1
    43   22   27 ar
    44   22   23 ar
    45   23   24 ar
    46   23   45 1
    47   24   25 ar
    48   24   46 1
    49   25   26 ar
    50   25   47 1
    51   26   27 ar
    52   26   48 1
    53   27   49 1
@<TRIPOS>MOLECULE
CHEMBL246604
   54    56     0     0     0
SMALL
USER_CHARGES

@<TRIPOS>ATOM
      1 C1         -0.5516    1.6367   -0.3567 C.3       1 <0>        -0.1986
      2 C2         -0.3657    0.1484   -0.2094 C.2       1 <0>         0.4347
      3 O1         -0.3813   -0.3594    0.8940 O.2       1 <0>        -0.4533
      4 C3         -0.1739   -0.6533   -1.3506 C.2       1 <0>        -0.0787
      5 N1         -0.2153   -0.2461   -2.5839 N.2       1 <0>        -0.1241
      6 N2         -0.0138   -1.1323   -3.4815 N.pl3     1 <0>        -0.3922
      7 C4          0.2244   -2.4470   -2.8643 C.3       1 <0>         0.0636
      8 C5          0.1233   -2.1408   -1.3532 C.3       1 <0>         0.0099
      9 C6         -1.0227   -2.9278   -0.7143 C.3       1 <0>        -0.1017
     10 C7         -2.3361   -2.5766   -1.4162 C.3       1 <0>        -0.1544
     11 C8         -3.4732   -3.4047   -0.8144 C.3       1 <0>        -0.0091
     12 N3         -4.7342   -3.0674   -1.4883 N.4       1 <0>        -0.3879
     13 C9         -4.6605   -3.4749   -2.8977 C.3       1 <0>        -0.0520
     14 C10        -5.8437   -3.7722   -0.8322 C.3       1 <0>        -0.0473
     15 C11         1.4270   -2.4301   -0.6549 C.ar      1 <0>        -0.0764
     16 C12         1.4675   -3.3419    0.3833 C.ar      1 <0>        -0.1044
     17 C13         2.6633   -3.6073    1.0239 C.ar      1 <0>        -0.1137
     18 C14         3.8188   -2.9613    0.6259 C.ar      1 <0>        -0.1098
     19 C15         3.7785   -2.0502   -0.4130 C.ar      1 <0>        -0.1123
     20 C16         2.5835   -1.7880   -1.0563 C.ar      1 <0>        -0.1109
     21 C17        -0.0192   -0.8880   -4.8562 C.ar      1 <0>         0.1554
     22 C18         1.0756   -1.2483   -5.6317 C.ar      1 <0>        -0.1323
     23 C19         1.0667   -1.0048   -6.9931 C.ar      1 <0>         0.1193
     24 C20        -0.0322   -0.4024   -7.5834 C.ar      1 <0>        -0.1161
     25 C21        -1.1235   -0.0426   -6.8145 C.ar      1 <0>        -0.1056
     26 C22        -1.1238   -0.2883   -5.4536 C.ar      1 <0>         0.0936
     27 F1         -2.1931    0.0582   -4.7041 F         1 <0>        -0.1269
     28 F2          2.1312   -1.3543   -7.7480 F         1 <0>        -0.1207
     29 H1          0.4196    2.1299   -0.3159 H         1 <0>         0.0992
     30 H2         -1.0277    1.8504   -1.3136 H         1 <0>         0.0880
     31 H3         -1.1810    2.0061    0.4529 H         1 <0>         0.0889
     32 H4         -0.5410   -3.1607   -3.1689 H         1 <0>         0.0954
     33 H5          1.2191   -2.8160   -3.1141 H         1 <0>         0.0999
     34 H6         -0.8308   -3.9960   -0.8159 H         1 <0>         0.0863
     35 H7         -1.0953   -2.6706    0.3424 H         1 <0>         0.1017
     36 H8         -2.5480   -1.5160   -1.2808 H         1 <0>         0.0891
     37 H9         -2.2498   -2.7970   -2.4801 H         1 <0>         0.0841
     38 H10        -3.2613   -4.4653   -0.9498 H         1 <0>         0.1317
     39 H11        -3.5596   -3.1843    0.2496 H         1 <0>         0.1347
     40 H12        -4.4933   -4.5503   -2.9568 H         1 <0>         0.1231
     41 H13        -5.5962   -3.2246   -3.3977 H         1 <0>         0.1255
     42 H14        -3.8373   -2.9519   -3.3845 H         1 <0>         0.1203
     43 H15        -5.8984   -3.4699    0.2136 H         1 <0>         0.1245
     44 H16        -6.7794   -3.5220   -1.3322 H         1 <0>         0.1248
     45 H17        -5.6765   -4.8477   -0.8913 H         1 <0>         0.1223
     46 H18         0.5647   -3.8466    0.6942 H         1 <0>         0.1238
     47 H19         2.6948   -4.3191    1.8355 H         1 <0>         0.1268
     48 H20         4.7530   -3.1681    1.1268 H         1 <0>         0.1270
     49 H21         4.6812   -1.5453   -0.7237 H         1 <0>         0.1258
     50 H22         2.5527   -1.0789   -1.8704 H         1 <0>         0.1128
     51 H23         1.9328   -1.7176   -5.1720 H         1 <0>         0.1525
     52 H24        -0.0363   -0.2131   -8.6466 H         1 <0>         0.1581
     53 H25        -1.9786    0.4269   -7.2780 H         1 <0>         0.1585
     54 H26        -4.8890   -2.0719   -1.4336 H         1 <0>         0.4274
@<TRIPOS>BOND
     1    1    2 1
     2    1   29 1
     3    1   30 1
     4    1   31 1
     5    2    3 2
     6    2    4 1
     7    4    8 1
     8    4    5 2
     9    5    6 1
    10    6    7 1
    11    6   21 1
    12    7    8 1
    13    7   32 1
    14    7   33 1
    15    8    9 1
    16    8   15 1
    17    9   10 1
    18    9   34 1
    19    9   35 1
    20   10   11 1
    21   10   36 1
    22   10   37 1
    23   11   12 1
    24   11   38 1
    25   11   39 1
    26   12   13 1
    27   12   14 1
    28   12   54 1
    29   13   40 1
    30   13   41 1
    31   13   42 1
    32   14   43 1
    33   14   44 1
    34   14   45 1
    35   15   20 ar
    36   15   16 ar
    37   16   17 ar
    38   16   46 1
    39   17   18 ar
    40   17   47 1
    41   18   19 ar
    42   18   48 1
    43   19   20 ar
    44   19   49 1
    45   20   50 1
    46   21   26 ar
    47   21   22 ar
    48   22   23 ar
    49   22   51 1
    50   23   24 ar
    51   23   28 1
    52   24   25 ar
    53   24   52 1
    54   25   26 ar
    55   25   53 1
    56   26   27 1
@<TRIPOS>MOLECULE
CHEMBL246604__1
   54    56     0     0     0
SMALL
USER_CHARGES

@<TRIPOS>ATOM
      1 C1         -0.2515    1.6065   -0.3679 C.3       1 <0>        -0.1977
      2 C2         -0.1794    0.1077   -0.2283 C.2       1 <0>         0.4319
      3 O1         -0.2048   -0.4015    0.8743 O.2       1 <0>        -0.4491
      4 C3         -0.0827   -0.7023   -1.3756 C.2       1 <0>        -0.0803
      5 N1         -0.1516   -0.2916   -2.6065 N.2       1 <0>        -0.1248
      6 N2         -0.0400   -1.1869   -3.5108 N.pl3     1 <0>        -0.3908
      7 C4          0.1463   -2.5141   -2.9027 C.3       1 <0>         0.0637
      8 C5          0.1264   -2.2046   -1.3891 C.3       1 <0>         0.0097
      9 C6          1.4590   -2.5764   -0.7357 C.3       1 <0>        -0.1018
     10 C7          2.5930   -1.8077   -1.4168 C.3       1 <0>        -0.1557
     11 C8          3.9079   -2.0840   -0.6849 C.3       1 <0>        -0.0098
     12 N3          4.9967   -1.3459   -1.3389 N.4       1 <0>        -0.3874
     13 C9          4.7666    0.0976   -1.1929 C.3       1 <0>        -0.0537
     14 C10         6.2763   -1.7036   -0.7122 C.3       1 <0>        -0.0475
     15 C11        -1.0186   -2.9132   -0.7124 C.ar      1 <0>        -0.0750
     16 C12        -0.7777   -3.7395    0.3693 C.ar      1 <0>        -0.1029
     17 C13        -1.8279   -4.3895    0.9900 C.ar      1 <0>        -0.1144
     18 C14        -3.1192   -4.2129    0.5292 C.ar      1 <0>        -0.1100
     19 C15        -3.3603   -3.3859   -0.5519 C.ar      1 <0>        -0.1125
     20 C16        -2.3105   -2.7326   -1.1699 C.ar      1 <0>        -0.1096
     21 C17        -0.0885   -0.9408   -4.8844 C.ar      1 <0>         0.1527
     22 C18         0.9501   -1.3635   -5.7045 C.ar      1 <0>        -0.1352
     23 C19         0.8987   -1.1179   -7.0646 C.ar      1 <0>         0.1121
     24 C20        -0.1867   -0.4514   -7.6091 C.ar      1 <0>        -0.1141
     25 C21        -1.2220   -0.0294   -6.7958 C.ar      1 <0>        -0.1040
     26 C22        -1.1800   -0.2765   -5.4358 C.ar      1 <0>         0.1024
     27 F1         -2.1949    0.1309   -4.6427 F         1 <0>        -0.1179
     28 F2          1.9084   -1.5282   -7.8629 F         1 <0>        -0.1245
     29 H1          0.7563    2.0217   -0.3532 H         1 <0>         0.0925
     30 H2         -0.7354    1.8607   -1.3109 H         1 <0>         0.0902
     31 H3         -0.8274    2.0212    0.4594 H         1 <0>         0.0910
     32 H4         -0.6716   -3.1813   -3.1744 H         1 <0>         0.1012
     33 H5          1.1064   -2.9405   -3.1934 H         1 <0>         0.0949
     34 H6          1.4293   -2.3178    0.3228 H         1 <0>         0.0987
     35 H7          1.6301   -3.6475   -0.8434 H         1 <0>         0.0887
     36 H8          2.6796   -2.1313   -2.4540 H         1 <0>         0.0842
     37 H9          2.3776   -0.7396   -1.3862 H         1 <0>         0.0897
     38 H10         3.8214   -1.7604    0.3523 H         1 <0>         0.1335
     39 H11         4.1233   -3.1520   -0.7156 H         1 <0>         0.1336
     40 H12         4.7373    0.3556   -0.1343 H         1 <0>         0.1245
     41 H13         5.5745    0.6453   -1.6782 H         1 <0>         0.1258
     42 H14         3.8172    0.3630   -1.6580 H         1 <0>         0.1220
     43 H15         6.4471   -2.7746   -0.8205 H         1 <0>         0.1239
     44 H16         7.0842   -1.1559   -1.1974 H         1 <0>         0.1250
     45 H17         6.2470   -1.4456    0.3464 H         1 <0>         0.1231
     46 H18         0.2312   -3.8774    0.7293 H         1 <0>         0.1229
     47 H19        -1.6396   -5.0355    1.8347 H         1 <0>         0.1263
     48 H20        -3.9397   -4.7213    1.0137 H         1 <0>         0.1265
     49 H21        -4.3691   -3.2483   -0.9121 H         1 <0>         0.1254
     50 H22        -2.4992   -2.0836   -2.0123 H         1 <0>         0.1127
     51 H23         1.7967   -1.8829   -5.2805 H         1 <0>         0.1457
     52 H24        -0.2241   -0.2607   -8.6715 H         1 <0>         0.1581
     53 H25        -2.0667    0.4900   -7.2237 H         1 <0>         0.1607
     54 H26         5.0238   -1.5847   -2.3189 H         1 <0>         0.4254
@<TRIPOS>BOND
     1    1    2 1
     2    1   29 1
     3    1   30 1
     4    1   31 1
     5    2    3 2
     6    2    4 1
     7    4    8 1
     8    4    5 2
     9    5    6 1
    10    6    7 1
    11    6   21 1
    12    7    8 1
    13    7   32 1
    14    7   33 1
    15    8    9 1
    16    8   15 1
    17    9   10 1
    18    9   34 1
    19    9   35 1
    20   10   11 1
    21   10   36 1
    22   10   37 1
    23   11   12 1
    24   11   38 1
    25   11   39 1
    26   12   13 1
    27   12   14 1
    28   12   54 1
    29   13   40 1
    30   13   41 1
    31   13   42 1
    32   14   43 1
    33   14   44 1
    34   14   45 1
    35   15   20 ar
    36   15   16 ar
    37   16   17 ar
    38   16   46 1
    39   17   18 ar
    40   17   47 1
    41   18   19 ar
    42   18   48 1
    43   19   20 ar
    44   19   49 1
    45   20   50 1
    46   21   26 ar
    47   21   22 ar
    48   22   23 ar
    49   22   51 1
    50   23   24 ar
    51   23   28 1
    52   24   25 ar
    53   24   52 1
    54   25   26 ar
    55   25   53 1
    56   26   27 1
@<TRIPOS>MOLECULE
CHEMBL250125
   67    71     0     0     0
SMALL
USER_CHARGES

@<TRIPOS>ATOM
      1 C1         -1.1458    1.1315    0.8205 C.3       1 <0>        -0.2000
      2 C2         -0.7443   -0.2940    0.5419 C.2       1 <0>         0.4325
      3 O1         -0.7259   -1.1073    1.4442 O.2       1 <0>        -0.4511
      4 C3         -0.3906   -0.6833   -0.7636 C.2       1 <0>        -0.0922
      5 N1         -0.4015    0.0817   -1.8187 N.2       1 <0>        -0.1175
      6 N2          0.0144   -0.4493   -2.8939 N.pl3     1 <0>        -0.3721
      7 C4          0.4081    0.1507   -4.0953 C.ar      1 <0>         0.1237
      8 C5         -0.0364    1.4054   -4.4648 C.ar      1 <0>        -0.1301
      9 C6          0.3903    1.9584   -5.6613 C.ar      1 <0>         0.1016
     10 C7          1.2582    1.2518   -6.4773 C.ar      1 <0>        -0.1218
     11 C8          1.7004   -0.0051   -6.1111 C.ar      1 <0>        -0.0887
     12 C9          1.2778   -0.5717   -4.9178 C.ar      1 <0>         0.0985
     13 O2          1.6977   -1.8156   -4.5720 O.3       1 <0>        -0.3037
     14 C10         1.5791   -2.2516   -3.2146 C.3       1 <0>         0.0595
     15 C11         0.1707   -1.9151   -2.7139 C.3       1 <0>         0.0444
     16 H1         -0.5968   -2.4807   -3.2422 H         1 <0>         0.1230
     17 C12         0.0761   -2.0659   -1.1855 C.3       1 <0>         0.0179
     18 C13        -0.9548   -3.1307   -0.8056 C.3       1 <0>        -0.0971
     19 C14        -2.3133   -2.7621   -1.4052 C.3       1 <0>        -0.1557
     20 C15        -3.3708   -3.7567   -0.9220 C.3       1 <0>        -0.0076
     21 N3         -4.6752   -3.4029   -1.4977 N.4       1 <0>        -0.3842
     22 C16        -5.0957   -2.0931   -0.9841 C.3       1 <0>        -0.0251
     23 C17        -6.3991   -1.6711   -1.6703 C.3       1 <0>         0.0888
     24 N4         -7.3907   -2.7421   -1.4867 N.am      1 <0>        -0.6374
     25 C18        -6.9952   -4.1183   -1.8241 C.3       1 <0>         0.0830
     26 C19        -5.6636   -4.4248   -1.1307 C.3       1 <0>        -0.0216
     27 C20        -8.6264   -2.4704   -1.0222 C.2       1 <0>         0.5214
     28 O3         -8.9342   -1.3295   -0.7490 O.2       1 <0>        -0.5128
     29 C21        -9.6255   -3.5841   -0.8423 C.3       1 <0>        -0.1801
     30 C22         1.4225   -2.3853   -0.5887 C.ar      1 <0>        -0.0833
     31 C23         2.1153   -1.4162    0.1125 C.ar      1 <0>        -0.0988
     32 C24         3.3504   -1.7092    0.6598 C.ar      1 <0>        -0.1100
     33 C25         3.8925   -2.9715    0.5064 C.ar      1 <0>        -0.1067
     34 C26         3.1993   -3.9410   -0.1940 C.ar      1 <0>        -0.1114
     35 C27         1.9623   -3.6492   -0.7377 C.ar      1 <0>        -0.1185
     36 F1         -0.0397    3.1844   -6.0317 F         1 <0>        -0.1263
     37 H2         -0.2620    1.7134    1.0822 H         1 <0>         0.1009
     38 H3         -1.6115    1.5581   -0.0680 H         1 <0>         0.0883
     39 H4         -1.8542    1.1543    1.6485 H         1 <0>         0.0906
     40 H5         -0.7130    1.9520   -3.8247 H         1 <0>         0.1513
     41 H6          1.5919    1.6867   -7.4079 H         1 <0>         0.1538
     42 H7          2.3768   -0.5472   -6.7553 H         1 <0>         0.1557
     43 H8          1.7389   -3.3285   -3.1610 H         1 <0>         0.1294
     44 H9          2.3184   -1.7385   -2.5996 H         1 <0>         0.0853
     45 H10        -0.6371   -4.0986   -1.1933 H         1 <0>         0.0876
     46 H11        -1.0391   -3.1839    0.2798 H         1 <0>         0.1048
     47 H12        -2.5892   -1.7562   -1.0889 H         1 <0>         0.0887
     48 H13        -2.2519   -2.7969   -2.4929 H         1 <0>         0.0855
     49 H14        -3.0949   -4.7627   -1.2383 H         1 <0>         0.1368
     50 H15        -3.4322   -3.7219    0.1657 H         1 <0>         0.1352
     51 H16        -5.2563   -2.1591    0.0920 H         1 <0>         0.1361
     52 H17        -4.3205   -1.3554   -1.1914 H         1 <0>         0.1417
     53 H18        -6.7681   -0.7493   -1.2204 H         1 <0>         0.1363
     54 H19        -6.2196   -1.5166   -2.7342 H         1 <0>         0.0939
     55 H20        -7.7582   -4.8145   -1.4759 H         1 <0>         0.1356
     56 H21        -6.8758   -4.2109   -2.9035 H         1 <0>         0.0979
     57 H22        -5.3069   -5.4053   -1.4460 H         1 <0>         0.1462
     58 H23        -5.8070   -4.4203   -0.0501 H         1 <0>         0.1358
     59 H24        -9.5356   -3.9939    0.1638 H         1 <0>         0.1033
     60 H25       -10.6333   -3.1950   -0.9874 H         1 <0>         0.1060
     61 H26        -9.4304   -4.3689   -1.5731 H         1 <0>         0.0859
     62 H27         1.6918   -0.4299    0.2323 H         1 <0>         0.1157
     63 H28         3.8919   -0.9518    1.2071 H         1 <0>         0.1276
     64 H29         4.8577   -3.2002    0.9335 H         1 <0>         0.1289
     65 H30         3.6230   -4.9271   -0.3142 H         1 <0>         0.1294
     66 H31         1.4191   -4.4077   -1.2817 H         1 <0>         0.1231
     67 H32        -4.5969   -3.3580   -2.5026 H         1 <0>         0.4222
@<TRIPOS>BOND
     1    1    2 1
     2    1   37 1
     3    1   38 1
     4    1   39 1
     5    2    3 2
     6    2    4 1
     7    4   17 1
     8    4    5 2
     9    5    6 1
    10    6   15 1
    11    6    7 1
    12    7   12 ar
    13    7    8 ar
    14    8    9 ar
    15    8   40 1
    16    9   10 ar
    17    9   36 1
    18   10   11 ar
    19   10   41 1
    20   11   12 ar
    21   11   42 1
    22   12   13 1
    23   13   14 1
    24   14   15 1
    25   14   43 1
    26   14   44 1
    27   15   16 1
    28   15   17 1
    29   17   18 1
    30   17   30 1
    31   18   19 1
    32   18   45 1
    33   18   46 1
    34   19   20 1
    35   19   47 1
    36   19   48 1
    37   20   21 1
    38   20   49 1
    39   20   50 1
    40   21   26 1
    41   21   22 1
    42   21   67 1
    43   22   23 1
    44   22   51 1
    45   22   52 1
    46   23   24 1
    47   23   53 1
    48   23   54 1
    49   24   25 1
    50   24   27 am
    51   25   26 1
    52   25   55 1
    53   25   56 1
    54   26   57 1
    55   26   58 1
    56   27   28 2
    57   27   29 1
    58   29   59 1
    59   29   60 1
    60   29   61 1
    61   30   35 ar
    62   30   31 ar
    63   31   32 ar
    64   31   62 1
    65   32   33 ar
    66   32   63 1
    67   33   34 ar
    68   33   64 1
    69   34   35 ar
    70   34   65 1
    71   35   66 1
@<TRIPOS>MOLECULE
CHEMBL250125__1
   66    70     0     0     0
SMALL
USER_CHARGES

@<TRIPOS>ATOM
      1 C1         -0.9737    0.9068    0.3434 C.3       1 <0>        -0.1973
      2 C2         -0.6292   -0.5497    0.1679 C.2       1 <0>         0.4330
      3 O1         -0.5573   -1.2780    1.1376 O.2       1 <0>        -0.4498
      4 C3         -0.3908   -1.0663   -1.1194 C.2       1 <0>        -0.0735
      5 N1         -0.5238   -0.4157   -2.2408 N.2       1 <0>        -0.1260
      6 N2         -0.1974   -1.0482   -3.2918 N.pl3     1 <0>        -0.3771
      7 C4          0.0629   -0.5696   -4.5808 C.ar      1 <0>         0.1364
      8 C5         -0.4500    0.6315   -5.0310 C.ar      1 <0>        -0.1321
      9 C6         -0.1551    1.0646   -6.3136 C.ar      1 <0>         0.0986
     10 C7          0.6507    0.2927   -7.1342 C.ar      1 <0>        -0.1293
     11 C8          1.1610   -0.9109   -6.6868 C.ar      1 <0>        -0.0912
     12 C9          0.8702   -1.3578   -5.4064 C.ar      1 <0>         0.0967
     13 O2          1.3561   -2.5510   -4.9783 O.3       1 <0>        -0.3055
     14 C10         1.3798   -2.8453   -3.5785 C.3       1 <0>         0.0609
     15 C11         0.0165   -2.4842   -2.9794 C.3       1 <0>         0.0471
     16 H1         -0.7815   -3.1156   -3.3698 H         1 <0>         0.1294
     17 C12         0.0724   -2.4766   -1.4417 C.3       1 <0>         0.0136
     18 C13        -0.8872   -3.5147   -0.8564 C.3       1 <0>        -0.0997
     19 C14        -2.3058   -3.2379   -1.3581 C.3       1 <0>        -0.1172
     20 C15        -3.2564   -4.3068   -0.8152 C.3       1 <0>         0.0585
     21 N3         -4.6185   -4.0410   -1.2969 N.3       1 <0>        -0.5376
     22 C16        -5.1383   -2.7852   -0.7397 C.3       1 <0>         0.0397
     23 C17        -6.4794   -2.4526   -1.4024 C.3       1 <0>         0.1164
     24 N4         -7.3718   -3.6129   -1.2592 N.am      1 <0>        -0.6169
     25 C18        -6.8686   -4.9326   -1.6699 C.3       1 <0>         0.1062
     26 C19        -5.5122   -5.1675   -0.9967 C.3       1 <0>         0.0394
     27 C20        -8.6176   -3.4707   -0.7652 C.2       1 <0>         0.5127
     28 O3         -9.0502   -2.3644   -0.5203 O.2       1 <0>        -0.5458
     29 C21        -9.4731   -4.6862   -0.5170 C.3       1 <0>        -0.1797
     30 C22         1.4781   -2.7076   -0.9500 C.ar      1 <0>        -0.0717
     31 C23         2.2123   -1.6551   -0.4363 C.ar      1 <0>        -0.1029
     32 C24         3.5017   -1.8670    0.0148 C.ar      1 <0>        -0.1130
     33 C25         4.0567   -3.1315   -0.0474 C.ar      1 <0>        -0.1143
     34 C26         3.3221   -4.1842   -0.5603 C.ar      1 <0>        -0.1132
     35 C27         2.0312   -3.9732   -1.0074 C.ar      1 <0>        -0.1166
     36 F1         -0.6528    2.2374   -6.7631 F         1 <0>        -0.1301
     37 H2         -0.0585    1.4827    0.4805 H         1 <0>         0.0964
     38 H3         -1.4993    1.2651   -0.5417 H         1 <0>         0.0891
     39 H4         -1.6126    1.0262    1.2185 H         1 <0>         0.0891
     40 H5         -1.0777    1.2295   -4.3868 H         1 <0>         0.1511
     41 H6          0.8818    0.6343   -8.1323 H         1 <0>         0.1496
     42 H7          1.7880   -1.5048   -7.3353 H         1 <0>         0.1524
     43 H8          1.5743   -3.9077   -3.4312 H         1 <0>         0.1281
     44 H9          2.1595   -2.2575   -3.0941 H         1 <0>         0.0822
     45 H10        -0.5790   -4.5120   -1.1701 H         1 <0>         0.0751
     46 H11        -0.8684   -3.4540    0.2318 H         1 <0>         0.0928
     47 H12        -2.6282   -2.2556   -1.0127 H         1 <0>         0.0645
     48 H13        -2.3169   -3.2615   -2.4478 H         1 <0>         0.0685
     49 H14        -2.9340   -5.2890   -1.1606 H         1 <0>         0.0783
     50 H15        -3.2454   -4.2832    0.2745 H         1 <0>         0.0386
     51 H16        -5.2813   -2.8958    0.3352 H         1 <0>         0.0398
     52 H17        -4.4284   -1.9807   -0.9316 H         1 <0>         0.0884
     53 H18        -6.9244   -1.5859   -0.9135 H         1 <0>         0.0952
     54 H19        -6.3225   -2.2396   -2.4598 H         1 <0>         0.0742
     55 H20        -7.5710   -5.7055   -1.3579 H         1 <0>         0.0973
     56 H21        -6.7491   -4.9580   -2.7530 H         1 <0>         0.0796
     57 H22        -5.0735   -6.0908   -1.3750 H         1 <0>         0.0898
     58 H23        -5.6500   -5.2450    0.0818 H         1 <0>         0.0406
     59 H24        -8.8865   -5.5867   -0.6988 H         1 <0>         0.0821
     60 H25        -9.8205   -4.6813    0.5161 H         1 <0>         0.0955
     61 H26       -10.3313   -4.6699   -1.1889 H         1 <0>         0.0965
     62 H27         1.7787   -0.6671   -0.3877 H         1 <0>         0.1159
     63 H28         4.0756   -1.0445    0.4155 H         1 <0>         0.1243
     64 H29         5.0643   -3.2969    0.3043 H         1 <0>         0.1249
     65 H30         3.7558   -5.1721   -0.6092 H         1 <0>         0.1267
     66 H31         1.4559   -4.7964   -1.4046 H         1 <0>         0.1253
@<TRIPOS>BOND
     1    1    2 1
     2    1   37 1
     3    1   38 1
     4    1   39 1
     5    2    3 2
     6    2    4 1
     7    4   17 1
     8    4    5 2
     9    5    6 1
    10    6   15 1
    11    6    7 1
    12    7   12 ar
    13    7    8 ar
    14    8    9 ar
    15    8   40 1
    16    9   10 ar
    17    9   36 1
    18   10   11 ar
    19   10   41 1
    20   11   12 ar
    21   11   42 1
    22   12   13 1
    23   13   14 1
    24   14   15 1
    25   14   43 1
    26   14   44 1
    27   15   16 1
    28   15   17 1
    29   17   18 1
    30   17   30 1
    31   18   19 1
    32   18   45 1
    33   18   46 1
    34   19   20 1
    35   19   47 1
    36   19   48 1
    37   20   21 1
    38   20   49 1
    39   20   50 1
    40   21   26 1
    41   21   22 1
    42   22   23 1
    43   22   51 1
    44   22   52 1
    45   23   24 1
    46   23   53 1
    47   23   54 1
    48   24   25 1
    49   24   27 am
    50   25   26 1
    51   25   55 1
    52   25   56 1
    53   26   57 1
    54   26   58 1
    55   27   28 2
    56   27   29 1
    57   29   59 1
    58   29   60 1
    59   29   61 1
    60   30   35 ar
    61   30   31 ar
    62   31   32 ar
    63   31   62 1
    64   32   33 ar
    65   32   63 1
    66   33   34 ar
    67   33   64 1
    68   34   35 ar
    69   34   65 1
    70   35   66 1
@<TRIPOS>MOLECULE
CHEMBL399378
   63    67     0     0     0
SMALL
USER_CHARGES

@<TRIPOS>ATOM
      1 C1          0.6089    2.1052    1.3694 C.3       1 <0>        -0.1123
      2 C2          0.6299    0.6325    1.0501 C.ar      1 <0>        -0.0884
      3 C3          0.8288    0.2093   -0.2517 C.ar      1 <0>        -0.0968
      4 C4          0.8462   -1.1381   -0.5577 C.ar      1 <0>        -0.1164
      5 C5          0.6649   -2.0814    0.4430 C.ar      1 <0>         0.0997
      6 C6          0.4721   -1.6455    1.7576 C.ar      1 <0>         0.1098
      7 C7          0.4559   -0.2975    2.0597 C.ar      1 <0>        -0.0961
      8 N1          0.3162   -2.6265    2.7425 N.pl3     1 <0>        -0.3735
      9 C8         -0.0497   -4.0128    2.3518 C.3       1 <0>         0.0463
     10 H1         -1.1069   -4.1072    2.1039 H         1 <0>         0.1235
     11 C9          0.8523   -4.3650    1.1646 C.3       1 <0>         0.0629
     12 O1          0.6696   -3.4036    0.1371 O.3       1 <0>        -0.3081
     13 C10         0.3234   -4.8129    3.6114 C.3       1 <0>         0.0149
     14 C11         0.5837   -3.7058    4.6185 C.2       1 <0>        -0.0827
     15 N2          0.5054   -2.5637    3.9958 N.2       1 <0>        -0.1226
     16 C12         0.8607   -3.8828    5.9870 C.2       1 <0>         0.4328
     17 O2          0.9671   -5.0028    6.4453 O.2       1 <0>        -0.4533
     18 C13         1.0253   -2.6829    6.8838 C.3       1 <0>        -0.1984
     19 C14        -0.8398   -5.6993    4.0611 C.3       1 <0>        -0.0975
     20 C15        -2.0218   -4.8194    4.4729 C.3       1 <0>        -0.1141
     21 C16        -3.2281   -5.7038    4.7949 C.3       1 <0>         0.0571
     22 N3         -4.3630   -4.8590    5.1903 N.3       1 <0>        -0.5373
     23 C17        -4.0913   -4.1730    6.4619 C.3       1 <0>         0.0152
     24 C18        -5.2714   -3.2602    6.8053 C.3       1 <0>         0.0635
     25 O3         -6.4705   -4.0379    6.8552 O.3       1 <0>        -0.3847
     26 C19        -6.7660   -4.7193    5.6330 C.3       1 <0>         0.0632
     27 C20        -5.6011   -5.6470    5.2777 C.3       1 <0>         0.0171
     28 C21         1.5657   -5.6340    3.3799 C.ar      1 <0>        -0.0709
     29 C22         2.7343   -5.3233    4.0498 C.ar      1 <0>        -0.0955
     30 C23         3.8738   -6.0764    3.8375 C.ar      1 <0>        -0.1146
     31 C24         3.8447   -7.1405    2.9556 C.ar      1 <0>        -0.1150
     32 C25         2.6759   -7.4518    2.2864 C.ar      1 <0>        -0.1150
     33 C26         1.5352   -6.7013    2.5019 C.ar      1 <0>        -0.1189
     34 H2          1.6193    2.4406    1.6034 H         1 <0>         0.0733
     35 H3          0.2326    2.6582    0.5088 H         1 <0>         0.0707
     36 H4         -0.0403    2.2818    2.2270 H         1 <0>         0.0682
     37 H5          0.9715    0.9382   -1.0357 H         1 <0>         0.1358
     38 H6          1.0008   -1.4573   -1.5778 H         1 <0>         0.1412
     39 H7          0.3041    0.0287    3.0780 H         1 <0>         0.1378
     40 H8          1.8955   -4.3482    1.4801 H         1 <0>         0.0776
     41 H9          0.5961   -5.3568    0.7920 H         1 <0>         0.1268
     42 H10         0.8962   -1.7720    6.2993 H         1 <0>         0.0862
     43 H11         0.2768   -2.7157    7.6756 H         1 <0>         0.0937
     44 H12         2.0218   -2.6932    7.3253 H         1 <0>         0.0937
     45 H13        -1.1399   -6.3496    3.2394 H         1 <0>         0.0740
     46 H14        -0.5264   -6.3072    4.9097 H         1 <0>         0.0892
     47 H15        -1.7521   -4.2378    5.3544 H         1 <0>         0.0646
     48 H16        -2.2743   -4.1441    3.6554 H         1 <0>         0.0666
     49 H17        -3.4979   -6.2854    3.9133 H         1 <0>         0.0771
     50 H18        -2.9757   -6.3791    5.6124 H         1 <0>         0.0390
     51 H19        -3.9600   -4.9113    7.2529 H         1 <0>         0.0442
     52 H20        -3.1846   -3.5755    6.3666 H         1 <0>         0.0860
     53 H21        -5.0999   -2.7930    7.7751 H         1 <0>         0.0986
     54 H22        -5.3693   -2.4889    6.0414 H         1 <0>         0.0592
     55 H23        -7.6755   -5.3075    5.7550 H         1 <0>         0.0991
     56 H24        -6.9074   -3.9905    4.8350 H         1 <0>         0.0598
     57 H25        -5.7965   -6.1254    4.3180 H         1 <0>         0.0865
     58 H26        -5.4939   -6.4089    6.0498 H         1 <0>         0.0440
     59 H27         2.7570   -4.4919    4.7388 H         1 <0>         0.1161
     60 H28         4.7870   -5.8332    4.3604 H         1 <0>         0.1236
     61 H29         4.7352   -7.7285    2.7892 H         1 <0>         0.1242
     62 H30         2.6532   -8.2829    1.5971 H         1 <0>         0.1260
     63 H31         0.6210   -6.9467    1.9819 H         1 <0>         0.1236
@<TRIPOS>BOND
     1    1    2 1
     2    1   34 1
     3    1   35 1
     4    1   36 1
     5    2    7 ar
     6    2    3 ar
     7    3    4 ar
     8    3   37 1
     9    4    5 ar
    10    4   38 1
    11    5   12 1
    12    5    6 ar
    13    6    7 ar
    14    6    8 1
    15    7   39 1
    16    8   15 1
    17    8    9 1
    18    9   10 1
    19    9   11 1
    20    9   13 1
    21   11   12 1
    22   11   40 1
    23   11   41 1
    24   13   14 1
    25   13   19 1
    26   13   28 1
    27   14   15 2
    28   14   16 1
    29   16   17 2
    30   16   18 1
    31   18   42 1
    32   18   43 1
    33   18   44 1
    34   19   20 1
    35   19   45 1
    36   19   46 1
    37   20   21 1
    38   20   47 1
    39   20   48 1
    40   21   22 1
    41   21   49 1
    42   21   50 1
    43   22   27 1
    44   22   23 1
    45   23   24 1
    46   23   51 1
    47   23   52 1
    48   24   25 1
    49   24   53 1
    50   24   54 1
    51   25   26 1
    52   26   27 1
    53   26   55 1
    54   26   56 1
    55   27   57 1
    56   27   58 1
    57   28   33 ar
    58   28   29 ar
    59   29   30 ar
    60   29   59 1
    61   30   31 ar
    62   30   60 1
    63   31   32 ar
    64   31   61 1
    65   32   33 ar
    66   32   62 1
    67   33   63 1
@<TRIPOS>MOLECULE
CHEMBL399378__1
   64    68     0     0     0
SMALL
USER_CHARGES

@<TRIPOS>ATOM
      1 C1          0.6089    2.1052    1.3694 C.3       1 <0>        -0.1153
      2 C2          0.6299    0.6325    1.0501 C.ar      1 <0>        -0.0850
      3 C3          0.8288    0.2093   -0.2517 C.ar      1 <0>        -0.0892
      4 C4          0.8462   -1.1381   -0.5577 C.ar      1 <0>        -0.1141
      5 C5          0.6649   -2.0814    0.4430 C.ar      1 <0>         0.1015
      6 C6          0.4721   -1.6455    1.7576 C.ar      1 <0>         0.0968
      7 C7          0.4559   -0.2975    2.0597 C.ar      1 <0>        -0.0941
      8 N1          0.3162   -2.6265    2.7425 N.pl3     1 <0>        -0.3679
      9 C8         -0.0497   -4.0128    2.3518 C.3       1 <0>         0.0435
     10 H1         -1.1069   -4.1072    2.1039 H         1 <0>         0.1180
     11 C9          0.8523   -4.3650    1.1646 C.3       1 <0>         0.0614
     12 O1          0.6696   -3.4036    0.1371 O.3       1 <0>        -0.3063
     13 C10         0.3234   -4.8129    3.6114 C.3       1 <0>         0.0189
     14 C11         0.5837   -3.7058    4.6185 C.2       1 <0>        -0.1021
     15 N2          0.5054   -2.5637    3.9958 N.2       1 <0>        -0.1144
     16 C12         0.8607   -3.8828    5.9870 C.2       1 <0>         0.4313
     17 O2          0.9671   -5.0028    6.4453 O.2       1 <0>        -0.4529
     18 C13         1.0253   -2.6829    6.8838 C.3       1 <0>        -0.2011
     19 C14        -0.8398   -5.6993    4.0611 C.3       1 <0>        -0.0948
     20 C15        -2.0218   -4.8194    4.4729 C.3       1 <0>        -0.1526
     21 C16        -3.2281   -5.7038    4.7949 C.3       1 <0>        -0.0077
     22 N3         -4.3630   -4.8590    5.1903 N.4       1 <0>        -0.3857
     23 C17        -4.0440   -4.1662    6.4462 C.3       1 <0>        -0.0490
     24 C18        -5.2278   -3.2866    6.8559 C.3       1 <0>         0.0372
     25 O3         -6.3967   -4.1003    6.9871 O.3       1 <0>        -0.3554
     26 C19        -6.7351   -4.8151    5.7953 C.3       1 <0>         0.0358
     27 C20        -5.5541   -5.6976    5.3836 C.3       1 <0>        -0.0436
     28 C21         1.5657   -5.6340    3.3799 C.ar      1 <0>        -0.0830
     29 C22         2.7343   -5.3233    4.0498 C.ar      1 <0>        -0.0932
     30 C23         3.8738   -6.0764    3.8375 C.ar      1 <0>        -0.1117
     31 C24         3.8447   -7.1405    2.9556 C.ar      1 <0>        -0.1073
     32 C25         2.6759   -7.4518    2.2864 C.ar      1 <0>        -0.1129
     33 C26         1.5352   -6.7013    2.5019 C.ar      1 <0>        -0.1202
     34 H2          1.6193    2.4406    1.6034 H         1 <0>         0.0768
     35 H3          0.2326    2.6582    0.5088 H         1 <0>         0.0736
     36 H4         -0.0403    2.2818    2.2270 H         1 <0>         0.0685
     37 H5          0.9715    0.9382   -1.0357 H         1 <0>         0.1400
     38 H6          1.0008   -1.4573   -1.5778 H         1 <0>         0.1446
     39 H7          0.3041    0.0287    3.0780 H         1 <0>         0.1379
     40 H8          1.8955   -4.3482    1.4801 H         1 <0>         0.0807
     41 H9          0.5961   -5.3568    0.7920 H         1 <0>         0.1280
     42 H10         0.8962   -1.7720    6.2993 H         1 <0>         0.0870
     43 H11         0.2768   -2.7157    7.6756 H         1 <0>         0.0931
     44 H12         2.0218   -2.6932    7.3253 H         1 <0>         0.0985
     45 H13        -1.1399   -6.3496    3.2394 H         1 <0>         0.0852
     46 H14        -0.5264   -6.3072    4.9097 H         1 <0>         0.1028
     47 H15        -1.7521   -4.2378    5.3544 H         1 <0>         0.0895
     48 H16        -2.2743   -4.1441    3.6554 H         1 <0>         0.0826
     49 H17        -3.4979   -6.2854    3.9133 H         1 <0>         0.1352
     50 H18        -2.9757   -6.3791    5.6124 H         1 <0>         0.1357
     51 H19        -3.8493   -4.9010    7.2275 H         1 <0>         0.1414
     52 H20        -3.1606   -3.5438    6.3038 H         1 <0>         0.1405
     53 H21        -5.0106   -2.8050    7.8093 H         1 <0>         0.1427
     54 H22        -5.3973   -2.5262    6.0935 H         1 <0>         0.0804
     55 H23        -7.6088   -5.4397    5.9811 H         1 <0>         0.1429
     56 H24        -6.9562   -4.1070    4.9966 H         1 <0>         0.0807
     57 H25        -5.7917   -6.2119    4.4524 H         1 <0>         0.1430
     58 H26        -5.3589   -6.4317    6.1653 H         1 <0>         0.1403
     59 H27         2.7570   -4.4919    4.7388 H         1 <0>         0.1160
     60 H28         4.7870   -5.8332    4.3604 H         1 <0>         0.1270
     61 H29         4.7352   -7.7285    2.7892 H         1 <0>         0.1284
     62 H30         2.6532   -8.2829    1.5971 H         1 <0>         0.1289
     63 H31         0.6210   -6.9467    1.9819 H         1 <0>         0.1220
     64 H32        -4.5441   -4.1789    4.4673 H         1 <0>         0.4215
@<TRIPOS>BOND
     1    1    2 1
     2    1   34 1
     3    1   35 1
     4    1   36 1
     5    2    7 ar
     6    2    3 ar
     7    3    4 ar
     8    3   37 1
     9    4    5 ar
    10    4   38 1
    11    5   12 1
    12    5    6 ar
    13    6    7 ar
    14    6    8 1
    15    7   39 1
    16    8   15 1
    17    8    9 1
    18    9   10 1
    19    9   11 1
    20    9   13 1
    21   11   12 1
    22   11   40 1
    23   11   41 1
    24   13   14 1
    25   13   19 1
    26   13   28 1
    27   14   15 2
    28   14   16 1
    29   16   17 2
    30   16   18 1
    31   18   42 1
    32   18   43 1
    33   18   44 1
    34   19   20 1
    35   19   45 1
    36   19   46 1
    37   20   21 1
    38   20   47 1
    39   20   48 1
    40   21   22 1
    41   21   49 1
    42   21   50 1
    43   22   27 1
    44   22   23 1
    45   22   64 1
    46   23   24 1
    47   23   51 1
    48   23   52 1
    49   24   25 1
    50   24   53 1
    51   24   54 1
    52   25   26 1
    53   26   27 1
    54   26   55 1
    55   26   56 1
    56   27   57 1
    57   27   58 1
    58   28   33 ar
    59   28   29 ar
    60   29   30 ar
    61   29   59 1
    62   30   31 ar
    63   30   60 1
    64   31   32 ar
    65   31   61 1
    66   32   33 ar
    67   32   62 1
    68   33   63 1
@<TRIPOS>MOLECULE
CHEMBL250126
   67    71     0     0     0
SMALL
USER_CHARGES

@<TRIPOS>ATOM
      1 C1         -1.1433    1.1321    0.8206 C.3       1 <0>        -0.2000
      2 C2         -0.7425   -0.2937    0.5420 C.2       1 <0>         0.4326
      3 O1         -0.7241   -1.1069    1.4443 O.2       1 <0>        -0.4516
      4 C3         -0.3896   -0.6831   -0.7636 C.2       1 <0>        -0.0940
      5 N1         -0.4006    0.0818   -1.8187 N.2       1 <0>        -0.1166
      6 N2          0.0140   -0.4497   -2.8943 N.pl3     1 <0>        -0.3712
      7 C4          0.4074    0.1498   -4.0961 C.ar      1 <0>         0.1063
      8 C5         -0.0358    1.4048   -4.4655 C.ar      1 <0>        -0.0841
      9 C6          0.3904    1.9569   -5.6618 C.ar      1 <0>        -0.0419
     10 C7          1.2564    1.2500   -6.4781 C.ar      1 <0>        -0.0781
     11 C8          1.6986   -0.0069   -6.1124 C.ar      1 <0>        -0.1064
     12 C9          1.2758   -0.5738   -4.9192 C.ar      1 <0>         0.1136
     13 O2          1.6945   -1.8178   -4.5737 O.3       1 <0>        -0.3038
     14 C10         1.5766   -2.2537   -3.2161 C.3       1 <0>         0.0593
     15 C11         0.1689   -1.9157   -2.7142 C.3       1 <0>         0.0443
     16 H1         -0.5996   -2.4805   -3.2420 H         1 <0>         0.1227
     17 C12         0.0763   -2.0660   -1.1856 C.3       1 <0>         0.0183
     18 C13        -0.9546   -3.1304   -0.8044 C.3       1 <0>        -0.0971
     19 C14        -2.3135   -2.7619   -1.4032 C.3       1 <0>        -0.1556
     20 C15        -3.3707   -3.7561   -0.9188 C.3       1 <0>        -0.0076
     21 N3         -4.6754   -3.4023   -1.4937 N.4       1 <0>        -0.3841
     22 C16        -5.0954   -2.0922   -0.9804 C.3       1 <0>        -0.0251
     23 C17        -6.3993   -1.6703   -1.6657 C.3       1 <0>         0.0889
     24 N4         -7.3909   -2.7411   -1.4810 N.am      1 <0>        -0.6378
     25 C18        -6.9958   -4.1175   -1.8182 C.3       1 <0>         0.0853
     26 C19        -5.6638   -4.4239   -1.1256 C.3       1 <0>        -0.0219
     27 C20        -8.6262   -2.4690   -1.0157 C.2       1 <0>         0.5210
     28 O3         -8.9336   -1.3280   -0.7427 O.2       1 <0>        -0.5122
     29 C21        -9.6254   -3.5825   -0.8347 C.3       1 <0>        -0.1797
     30 C22         1.4232   -2.3857   -0.5901 C.ar      1 <0>        -0.0832
     31 C23         2.1168   -1.4167    0.1105 C.ar      1 <0>        -0.0987
     32 C24         3.3523   -1.7099    0.6567 C.ar      1 <0>        -0.1101
     33 C25         3.8941   -2.9723    0.5026 C.ar      1 <0>        -0.1068
     34 C26         3.2001   -3.9416   -0.1972 C.ar      1 <0>        -0.1114
     35 C27         1.9627   -3.6496   -0.7397 C.ar      1 <0>        -0.1187
     36 Cl1        -0.1600    3.5333   -6.1367 Cl        1 <0>        -0.0453
     37 H2         -0.2592    1.7136    1.0820 H         1 <0>         0.1008
     38 H3         -1.6092    1.5588   -0.0676 H         1 <0>         0.0883
     39 H4         -1.8513    1.1552    1.6490 H         1 <0>         0.0904
     40 H5         -0.7113    1.9524   -3.8251 H         1 <0>         0.1491
     41 H6          1.5895    1.6849   -7.4089 H         1 <0>         0.1512
     42 H7          2.3745   -0.5492   -6.7570 H         1 <0>         0.1546
     43 H8          1.7352   -3.3307   -3.1626 H         1 <0>         0.1295
     44 H9          2.3169   -1.7413   -2.6018 H         1 <0>         0.0857
     45 H10        -0.6374   -4.0986   -1.1918 H         1 <0>         0.0873
     46 H11        -1.0381   -3.1831    0.2811 H         1 <0>         0.1047
     47 H12        -2.5890   -1.7558   -1.0870 H         1 <0>         0.0889
     48 H13        -2.2528   -2.7971   -2.4909 H         1 <0>         0.0854
     49 H14        -3.0952   -4.7622   -1.2350 H         1 <0>         0.1367
     50 H15        -3.4314   -3.7209    0.1689 H         1 <0>         0.1352
     51 H16        -5.2552   -2.1578    0.0959 H         1 <0>         0.1361
     52 H17        -4.3202   -1.3548   -1.1885 H         1 <0>         0.1417
     53 H18        -6.7678   -0.7483   -1.2160 H         1 <0>         0.1363
     54 H19        -6.2205   -1.5162   -2.7299 H         1 <0>         0.0938
     55 H20        -7.7587   -4.8134   -1.4692 H         1 <0>         0.1337
     56 H21        -6.8773   -4.2105   -2.8977 H         1 <0>         0.0981
     57 H22        -5.3074   -5.4046   -1.4408 H         1 <0>         0.1462
     58 H23        -5.8064   -4.4190   -0.0450 H         1 <0>         0.1357
     59 H24        -9.2321   -4.3120   -0.1267 H         1 <0>         0.0939
     60 H25       -10.5605   -3.1730   -0.4526 H         1 <0>         0.1046
     61 H26        -9.8063   -4.0679   -1.7938 H         1 <0>         0.0962
     62 H27         1.6935   -0.4304    0.2308 H         1 <0>         0.1158
     63 H28         3.8945   -0.9527    1.2034 H         1 <0>         0.1276
     64 H29         4.8597   -3.2012    0.9288 H         1 <0>         0.1289
     65 H30         3.6235   -4.9278   -0.3178 H         1 <0>         0.1294
     66 H31         1.4188   -4.4080   -1.2833 H         1 <0>         0.1230
     67 H32        -4.5979   -3.3578   -2.4987 H         1 <0>         0.4222
@<TRIPOS>BOND
     1    1    2 1
     2    1   37 1
     3    1   38 1
     4    1   39 1
     5    2    3 2
     6    2    4 1
     7    4   17 1
     8    4    5 2
     9    5    6 1
    10    6   15 1
    11    6    7 1
    12    7   12 ar
    13    7    8 ar
    14    8    9 ar
    15    8   40 1
    16    9   10 ar
    17    9   36 1
    18   10   11 ar
    19   10   41 1
    20   11   12 ar
    21   11   42 1
    22   12   13 1
    23   13   14 1
    24   14   15 1
    25   14   43 1
    26   14   44 1
    27   15   16 1
    28   15   17 1
    29   17   18 1
    30   17   30 1
    31   18   19 1
    32   18   45 1
    33   18   46 1
    34   19   20 1
    35   19   47 1
    36   19   48 1
    37   20   21 1
    38   20   49 1
    39   20   50 1
    40   21   26 1
    41   21   22 1
    42   21   67 1
    43   22   23 1
    44   22   51 1
    45   22   52 1
    46   23   24 1
    47   23   53 1
    48   23   54 1
    49   24   25 1
    50   24   27 am
    51   25   26 1
    52   25   55 1
    53   25   56 1
    54   26   57 1
    55   26   58 1
    56   27   28 2
    57   27   29 1
    58   29   59 1
    59   29   60 1
    60   29   61 1
    61   30   35 ar
    62   30   31 ar
    63   31   32 ar
    64   31   62 1
    65   32   33 ar
    66   32   63 1
    67   33   34 ar
    68   33   64 1
    69   34   35 ar
    70   34   65 1
    71   35   66 1
@<TRIPOS>MOLECULE
CHEMBL250126__1
   66    70     0     0     0
SMALL
USER_CHARGES

@<TRIPOS>ATOM
      1 C1         -1.1433    1.1321    0.8206 C.3       1 <0>        -0.1970
      2 C2         -0.7425   -0.2937    0.5420 C.2       1 <0>         0.4327
      3 O1         -0.7241   -1.1069    1.4443 O.2       1 <0>        -0.4502
      4 C3         -0.3896   -0.6831   -0.7636 C.2       1 <0>        -0.0756
      5 N1         -0.4006    0.0818   -1.8187 N.2       1 <0>        -0.1250
      6 N2          0.0140   -0.4497   -2.8943 N.pl3     1 <0>        -0.3760
      7 C4          0.4074    0.1498   -4.0961 C.ar      1 <0>         0.1189
      8 C5         -0.0358    1.4048   -4.4655 C.ar      1 <0>        -0.0865
      9 C6          0.3904    1.9569   -5.6618 C.ar      1 <0>        -0.0414
     10 C7          1.2563    1.2500   -6.4781 C.ar      1 <0>        -0.0856
     11 C8          1.6986   -0.0069   -6.1124 C.ar      1 <0>        -0.1087
     12 C9          1.2758   -0.5738   -4.9192 C.ar      1 <0>         0.1120
     13 O2          1.6945   -1.8178   -4.5737 O.3       1 <0>        -0.3055
     14 C10         1.5766   -2.2537   -3.2161 C.3       1 <0>         0.0605
     15 C11         0.1689   -1.9157   -2.7142 C.3       1 <0>         0.0474
     16 H1         -0.5996   -2.4805   -3.2420 H         1 <0>         0.1286
     17 C12         0.0763   -2.0660   -1.1856 C.3       1 <0>         0.0141
     18 C13        -0.9546   -3.1304   -0.8044 C.3       1 <0>        -0.0998
     19 C14        -2.3135   -2.7619   -1.4032 C.3       1 <0>        -0.1172
     20 C15        -3.3707   -3.7561   -0.9188 C.3       1 <0>         0.0586
     21 N3         -4.6754   -3.4023   -1.4937 N.3       1 <0>        -0.5375
     22 C16        -5.1426   -2.1072   -0.9815 C.3       1 <0>         0.0398
     23 C17        -6.4096   -1.6902   -1.7359 C.3       1 <0>         0.1159
     24 N4         -7.3884   -2.7843   -1.6458 N.am      1 <0>        -0.6172
     25 C18        -6.9522   -4.1402   -2.0125 C.3       1 <0>         0.1095
     26 C19        -5.6638   -4.4607   -1.2472 C.3       1 <0>         0.0399
     27 C20        -8.6517   -2.5505   -1.2385 C.2       1 <0>         0.5125
     28 O3         -8.9944   -1.4260   -0.9403 O.2       1 <0>        -0.5455
     29 C21        -9.6384   -3.6864   -1.1535 C.3       1 <0>        -0.1762
     30 C22         1.4232   -2.3857   -0.5901 C.ar      1 <0>        -0.0716
     31 C23         2.1168   -1.4167    0.1105 C.ar      1 <0>        -0.1011
     32 C24         3.3523   -1.7099    0.6567 C.ar      1 <0>        -0.1132
     33 C25         3.8941   -2.9723    0.5026 C.ar      1 <0>        -0.1143
     34 C26         3.2001   -3.9416   -0.1972 C.ar      1 <0>        -0.1135
     35 C27         1.9627   -3.6496   -0.7397 C.ar      1 <0>        -0.1171
     36 Cl1        -0.1601    3.5333   -6.1366 Cl        1 <0>        -0.0533
     37 H2         -0.2592    1.7136    1.0820 H         1 <0>         0.0964
     38 H3         -1.6092    1.5587   -0.0676 H         1 <0>         0.0886
     39 H4         -1.8514    1.1552    1.6490 H         1 <0>         0.0888
     40 H5         -0.7113    1.9524   -3.8251 H         1 <0>         0.1491
     41 H6          1.5895    1.6849   -7.4088 H         1 <0>         0.1472
     42 H7          2.3745   -0.5492   -6.7570 H         1 <0>         0.1515
     43 H8          1.7353   -3.3307   -3.1626 H         1 <0>         0.1284
     44 H9          2.3169   -1.7413   -2.6018 H         1 <0>         0.0827
     45 H10        -0.6374   -4.0986   -1.1918 H         1 <0>         0.0753
     46 H11        -1.0381   -3.1831    0.2811 H         1 <0>         0.0919
     47 H12        -2.5890   -1.7558   -1.0870 H         1 <0>         0.0644
     48 H13        -2.2528   -2.7971   -2.4909 H         1 <0>         0.0689
     49 H14        -3.0952   -4.7622   -1.2350 H         1 <0>         0.0784
     50 H15        -3.4314   -3.7209    0.1689 H         1 <0>         0.0386
     51 H16        -5.3649   -2.1954    0.0819 H         1 <0>         0.0397
     52 H17        -4.3669   -1.3560   -1.1302 H         1 <0>         0.0879
     53 H18        -6.8249   -0.7893   -1.2843 H         1 <0>         0.0957
     54 H19        -6.1674   -1.5007   -2.7816 H         1 <0>         0.0744
     55 H20        -7.7262   -4.8591   -1.7438 H         1 <0>         0.0937
     56 H21        -6.7621   -4.1862   -3.0849 H         1 <0>         0.0791
     57 H22        -5.2661   -5.4164   -1.5887 H         1 <0>         0.0899
     58 H23        -5.8789   -4.5162   -0.1801 H         1 <0>         0.0404
     59 H24        -9.5943   -4.1324   -0.1599 H         1 <0>         0.0939
     60 H25       -10.6440   -3.3087   -1.3380 H         1 <0>         0.0947
     61 H26        -9.3904   -4.4398   -1.9012 H         1 <0>         0.0829
     62 H27         1.6935   -0.4304    0.2308 H         1 <0>         0.1157
     63 H28         3.8945   -0.9527    1.2034 H         1 <0>         0.1241
     64 H29         4.8597   -3.2012    0.9288 H         1 <0>         0.1248
     65 H30         3.6235   -4.9278   -0.3178 H         1 <0>         0.1266
     66 H31         1.4188   -4.4080   -1.2833 H         1 <0>         0.1250
@<TRIPOS>BOND
     1    1    2 1
     2    1   37 1
     3    1   38 1
     4    1   39 1
     5    2    3 2
     6    2    4 1
     7    4   17 1
     8    4    5 2
     9    5    6 1
    10    6   15 1
    11    6    7 1
    12    7   12 ar
    13    7    8 ar
    14    8    9 ar
    15    8   40 1
    16    9   10 ar
    17    9   36 1
    18   10   11 ar
    19   10   41 1
    20   11   12 ar
    21   11   42 1
    22   12   13 1
    23   13   14 1
    24   14   15 1
    25   14   43 1
    26   14   44 1
    27   15   16 1
    28   15   17 1
    29   17   18 1
    30   17   30 1
    31   18   19 1
    32   18   45 1
    33   18   46 1
    34   19   20 1
    35   19   47 1
    36   19   48 1
    37   20   21 1
    38   20   49 1
    39   20   50 1
    40   21   26 1
    41   21   22 1
    42   22   23 1
    43   22   51 1
    44   22   52 1
    45   23   24 1
    46   23   53 1
    47   23   54 1
    48   24   25 1
    49   24   27 am
    50   25   26 1
    51   25   55 1
    52   25   56 1
    53   26   57 1
    54   26   58 1
    55   27   28 2
    56   27   29 1
    57   29   59 1
    58   29   60 1
    59   29   61 1
    60   30   35 ar
    61   30   31 ar
    62   31   32 ar
    63   31   62 1
    64   32   33 ar
    65   32   63 1
    66   33   34 ar
    67   33   64 1
    68   34   35 ar
    69   34   65 1
    70   35   66 1
@<TRIPOS>MOLECULE
CHEMBL429553
   56    59     0     0     0
SMALL
USER_CHARGES

@<TRIPOS>ATOM
      1 C1         -1.1433    1.1321    0.8206 C.3       1 <0>        -0.1996
      2 C2         -0.7425   -0.2937    0.5420 C.2       1 <0>         0.4328
      3 O1         -0.7241   -1.1069    1.4443 O.2       1 <0>        -0.4517
      4 C3         -0.3896   -0.6831   -0.7636 C.2       1 <0>        -0.0936
      5 N1         -0.4006    0.0818   -1.8187 N.2       1 <0>        -0.1172
      6 N2          0.0140   -0.4497   -2.8943 N.pl3     1 <0>        -0.3714
      7 C4          0.4074    0.1498   -4.0961 C.ar      1 <0>         0.1063
      8 C5         -0.0358    1.4048   -4.4655 C.ar      1 <0>        -0.0843
      9 C6          0.3904    1.9569   -5.6618 C.ar      1 <0>        -0.0420
     10 C7          1.2564    1.2500   -6.4781 C.ar      1 <0>        -0.0782
     11 C8          1.6986   -0.0069   -6.1124 C.ar      1 <0>        -0.1064
     12 C9          1.2758   -0.5738   -4.9192 C.ar      1 <0>         0.1136
     13 O2          1.6945   -1.8178   -4.5737 O.3       1 <0>        -0.3038
     14 C10         1.5766   -2.2537   -3.2161 C.3       1 <0>         0.0592
     15 C11         0.1689   -1.9157   -2.7142 C.3       1 <0>         0.0442
     16 H1         -0.5996   -2.4805   -3.2420 H         1 <0>         0.1227
     17 C12         0.0763   -2.0660   -1.1856 C.3       1 <0>         0.0181
     18 C13        -0.9546   -3.1304   -0.8044 C.3       1 <0>        -0.0976
     19 C14        -2.3135   -2.7619   -1.4032 C.3       1 <0>        -0.1558
     20 C15        -3.3707   -3.7561   -0.9188 C.3       1 <0>        -0.0090
     21 N3         -4.6754   -3.4023   -1.4937 N.4       1 <0>        -0.3876
     22 C16        -5.6656   -4.4234   -1.1264 C.3       1 <0>        -0.0474
     23 C17        -5.1022   -2.0967   -0.9728 C.3       1 <0>        -0.0533
     24 C18         1.4232   -2.3857   -0.5901 C.ar      1 <0>        -0.0833
     25 C19         2.1168   -1.4167    0.1105 C.ar      1 <0>        -0.0988
     26 C20         3.3523   -1.7099    0.6567 C.ar      1 <0>        -0.1102
     27 C21         3.8941   -2.9723    0.5026 C.ar      1 <0>        -0.1069
     28 C22         3.2001   -3.9416   -0.1972 C.ar      1 <0>        -0.1114
     29 C23         1.9627   -3.6496   -0.7397 C.ar      1 <0>        -0.1187
     30 Cl1        -0.1600    3.5333   -6.1367 Cl        1 <0>        -0.0455
     31 H2         -0.2592    1.7136    1.0820 H         1 <0>         0.1007
     32 H3         -1.6092    1.5588   -0.0676 H         1 <0>         0.0881
     33 H4         -1.8513    1.1552    1.6490 H         1 <0>         0.0903
     34 H5         -0.7113    1.9524   -3.8251 H         1 <0>         0.1490
     35 H6          1.5895    1.6849   -7.4089 H         1 <0>         0.1512
     36 H7          2.3745   -0.5492   -6.7570 H         1 <0>         0.1547
     37 H8          1.7352   -3.3307   -3.1626 H         1 <0>         0.1296
     38 H9          2.3169   -1.7413   -2.6018 H         1 <0>         0.0858
     39 H10        -0.6374   -4.0986   -1.1918 H         1 <0>         0.0867
     40 H11        -1.0381   -3.1831    0.2811 H         1 <0>         0.1044
     41 H12        -2.5890   -1.7558   -1.0870 H         1 <0>         0.0891
     42 H13        -2.2528   -2.7971   -2.4909 H         1 <0>         0.0840
     43 H14        -3.0952   -4.7622   -1.2350 H         1 <0>         0.1337
     44 H15        -3.4314   -3.7209    0.1689 H         1 <0>         0.1344
     45 H16        -5.7488   -4.4749   -0.0408 H         1 <0>         0.1232
     46 H17        -6.6337   -4.1608   -1.5530 H         1 <0>         0.1252
     47 H18        -5.3489   -5.3921   -1.5129 H         1 <0>         0.1239
     48 H19        -4.3675   -1.3390   -1.2454 H         1 <0>         0.1213
     49 H20        -6.0703   -1.8341   -1.3994 H         1 <0>         0.1260
     50 H21        -5.1854   -2.1482    0.1128 H         1 <0>         0.1247
     51 H22         1.6935   -0.4304    0.2308 H         1 <0>         0.1158
     52 H23         3.8945   -0.9527    1.2034 H         1 <0>         0.1276
     53 H24         4.8597   -3.2012    0.9288 H         1 <0>         0.1290
     54 H25         3.6235   -4.9278   -0.3178 H         1 <0>         0.1294
     55 H26         1.4188   -4.4080   -1.2833 H         1 <0>         0.1230
     56 H27        -4.5984   -3.3546   -2.4986 H         1 <0>         0.4256
@<TRIPOS>BOND
     1    1    2 1
     2    1   31 1
     3    1   32 1
     4    1   33 1
     5    2    3 2
     6    2    4 1
     7    4   17 1
     8    4    5 2
     9    5    6 1
    10    6   15 1
    11    6    7 1
    12    7   12 ar
    13    7    8 ar
    14    8    9 ar
    15    8   34 1
    16    9   10 ar
    17    9   30 1
    18   10   11 ar
    19   10   35 1
    20   11   12 ar
    21   11   36 1
    22   12   13 1
    23   13   14 1
    24   14   15 1
    25   14   37 1
    26   14   38 1
    27   15   16 1
    28   15   17 1
    29   17   18 1
    30   17   24 1
    31   18   19 1
    32   18   39 1
    33   18   40 1
    34   19   20 1
    35   19   41 1
    36   19   42 1
    37   20   21 1
    38   20   43 1
    39   20   44 1
    40   21   22 1
    41   21   23 1
    42   21   56 1
    43   22   45 1
    44   22   46 1
    45   22   47 1
    46   23   48 1
    47   23   49 1
    48   23   50 1
    49   24   29 ar
    50   24   25 ar
    51   25   26 ar
    52   25   51 1
    53   26   27 ar
    54   26   52 1
    55   27   28 ar
    56   27   53 1
    57   28   29 ar
    58   28   54 1
    59   29   55 1
@<TRIPOS>MOLECULE
CHEMBL591330
   52    55     0     0     0
SMALL
USER_CHARGES

@<TRIPOS>ATOM
      1 C1         -0.0431    1.1627    0.1292 C.ar      1 <0>        -0.0864
      2 C2          1.1034    1.9258    0.1016 C.ar      1 <0>        -0.1125
      3 C3          2.3482    1.3081    0.0577 C.ar      1 <0>         0.1018
      4 C4          2.4238   -0.0980    0.0418 C.ar      1 <0>        -0.0868
      5 C5          1.2519   -0.8571    0.0693 C.ar      1 <0>        -0.0639
      6 C6          0.0296   -0.2243    0.1133 C.ar      1 <0>        -0.0544
      7 Cl1        -1.4287   -1.1655    0.1485 Cl        1 <0>        -0.0651
      8 C7          3.8470   -0.4217   -0.0037 C.2       1 <0>        -0.1674
      9 C8          4.5213    0.7441   -0.0146 C.2       1 <0>         0.0779
     10 N1          3.6407    1.7868    0.0234 N.pl3     1 <0>        -0.5787
     11 H1          3.8877    2.7248    0.0260 H         1 <0>         0.4187
     12 C9          6.0310    0.8330   -0.0674 C.3       1 <0>         0.2168
     13 N2          6.5609   -0.5191    0.1794 N.am      1 <0>        -0.5926
     14 C10         5.9307   -1.6536   -0.5124 C.3       1 <0>         0.1024
     15 C11         4.4809   -1.7884   -0.0297 C.3       1 <0>        -0.0605
     16 C12         7.5982   -0.7117    1.0181 C.2       1 <0>         0.5224
     17 O1          8.0461    0.2199    1.6525 O.2       1 <0>        -0.5116
     18 C13         8.2013   -2.0846    1.1677 C.3       1 <0>        -0.1796
     19 C14         9.3540   -2.0286    2.1722 C.3       1 <0>         0.0066
     20 N3          9.9420   -3.3669    2.3180 N.4       1 <0>        -0.6372
     21 C15         6.5334    1.7935    1.0125 C.3       1 <0>        -0.1009
     22 C16         5.9487    1.3888    2.3671 C.3       1 <0>        -0.0935
     23 C17         6.4511    2.3492    3.4470 C.3       1 <0>        -0.1130
     24 C18         6.0108    3.7745    3.1067 C.3       1 <0>        -0.1232
     25 C19         6.5955    4.1792    1.7520 C.3       1 <0>        -0.1146
     26 C20         6.0931    3.2187    0.6722 C.3       1 <0>        -0.1255
     27 H2         -1.0074    1.6475    0.1680 H         1 <0>         0.1400
     28 H3          1.0353    3.0036    0.1137 H         1 <0>         0.1318
     29 H4          1.3041   -1.9358    0.0568 H         1 <0>         0.1324
     30 H5          6.3475    1.1813   -1.0505 H         1 <0>         0.0972
     31 H6          5.9423   -1.4772   -1.5880 H         1 <0>         0.0874
     32 H7          6.4774   -2.5688   -0.2852 H         1 <0>         0.0900
     33 H8          4.4680   -2.2159    0.9728 H         1 <0>         0.0748
     34 H9          3.9278   -2.4345   -0.7113 H         1 <0>         0.0909
     35 H10         7.4408   -2.7785    1.5257 H         1 <0>         0.1185
     36 H11         8.5769   -2.4236    0.2022 H         1 <0>         0.1194
     37 H12        10.1145   -1.3346    1.8142 H         1 <0>         0.1439
     38 H13         8.9784   -1.6896    3.1377 H         1 <0>         0.1434
     39 H14         9.2379   -4.0092    2.6494 H         1 <0>         0.4355
     40 H15        10.2896   -3.6807    1.4243 H         1 <0>         0.4355
     41 H16         7.6215    1.7507    1.0590 H         1 <0>         0.1337
     42 H17         4.8605    1.4315    2.3206 H         1 <0>         0.0514
     43 H18         6.2623    0.3734    2.6095 H         1 <0>         0.0588
     44 H19         6.0345    2.0609    4.4121 H         1 <0>         0.0560
     45 H20         7.5392    2.3065    3.4935 H         1 <0>         0.0643
     46 H21         4.9226    3.8172    3.0602 H         1 <0>         0.0581
     47 H22         6.3687    4.4587    3.8760 H         1 <0>         0.0639
     48 H23         6.2818    5.1946    1.5096 H         1 <0>         0.0653
     49 H24         7.6837    4.1365    1.7986 H         1 <0>         0.0666
     50 H25         6.5097    3.5071   -0.2929 H         1 <0>         0.0675
     51 H26         5.0049    3.2615    0.6257 H         1 <0>         0.0514
     52 H27        10.7021   -3.3299    2.9805 H         1 <0>         0.4433
@<TRIPOS>BOND
     1    1    6 ar
     2    1    2 ar
     3    1   27 1
     4    2    3 ar
     5    2   28 1
     6    3   10 1
     7    3    4 ar
     8    4    5 ar
     9    4    8 1
    10    5    6 ar
    11    5   29 1
    12    6    7 1
    13    8   15 1
    14    8    9 2
    15    9   10 1
    16    9   12 1
    17   10   11 1
    18   12   13 1
    19   12   21 1
    20   12   30 1
    21   13   14 1
    22   13   16 am
    23   14   15 1
    24   14   31 1
    25   14   32 1
    26   15   33 1
    27   15   34 1
    28   16   17 2
    29   16   18 1
    30   18   19 1
    31   18   35 1
    32   18   36 1
    33   19   20 1
    34   19   37 1
    35   19   38 1
    36   20   39 1
    37   20   40 1
    38   20   52 1
    39   21   26 1
    40   21   22 1
    41   21   41 1
    42   22   23 1
    43   22   42 1
    44   22   43 1
    45   23   24 1
    46   23   44 1
    47   23   45 1
    48   24   25 1
    49   24   46 1
    50   24   47 1
    51   25   26 1
    52   25   48 1
    53   25   49 1
    54   26   50 1
    55   26   51 1
@<TRIPOS>MOLECULE
CHEMBL591330__1
   52    55     0     0     0
SMALL
USER_CHARGES

@<TRIPOS>ATOM
      1 C1         -0.0168    1.3849    0.0097 C.ar      1 <0>        -0.0854
      2 C2          1.1589    2.1025    0.0023 C.ar      1 <0>        -0.1121
      3 C3          2.3793    1.4367   -0.0127 C.ar      1 <0>         0.1047
      4 C4          2.4004    0.0286   -0.0203 C.ar      1 <0>        -0.0879
      5 C5          1.1995   -0.6842   -0.0135 C.ar      1 <0>        -0.0631
      6 C6          0.0021   -0.0041    0.0020 C.ar      1 <0>        -0.0542
      7 Cl1        -1.4923   -0.8876    0.0113 Cl        1 <0>        -0.0642
      8 C7          3.8105   -0.3505   -0.0346 C.2       1 <0>        -0.1619
      9 C8          4.5298    0.7882   -0.0370 C.2       1 <0>         0.0738
     10 N1          3.6900    1.8645   -0.0224 N.pl3     1 <0>        -0.5781
     11 H1          3.9733    2.7922   -0.0192 H         1 <0>         0.4194
     12 C9          6.0426    0.8180   -0.0587 C.3       1 <0>         0.2161
     13 N2          6.5142   -0.5523    0.2055 N.am      1 <0>        -0.5920
     14 C10         5.8546   -1.6653   -0.4938 C.3       1 <0>         0.1010
     15 C11         4.3910   -1.7408   -0.0407 C.3       1 <0>        -0.0612
     16 C12         7.5256   -0.7804    1.0665 C.2       1 <0>         0.5257
     17 O1          8.0593    0.1486    1.6349 O.2       1 <0>        -0.5277
     18 C13         7.9934   -2.1898    1.3232 C.3       1 <0>        -0.1774
     19 C14         9.1432   -2.1697    2.3323 C.3       1 <0>         0.0062
     20 N3          9.5991   -3.5436    2.5825 N.4       1 <0>        -0.6368
     21 C15         6.5339    1.2814   -1.4316 C.3       1 <0>        -0.0903
     22 C16         5.9970    2.6852   -1.7183 C.3       1 <0>        -0.1214
     23 C17         6.4884    3.1486   -3.0912 C.3       1 <0>        -0.1172
     24 C18         8.0181    3.1754   -3.1030 C.3       1 <0>        -0.1229
     25 C19         8.5550    1.7716   -2.8163 C.3       1 <0>        -0.1195
     26 C20         8.0637    1.3082   -1.4435 C.3       1 <0>        -0.1035
     27 H2         -0.9621    1.9069    0.0260 H         1 <0>         0.1406
     28 H3          1.1327    3.1822    0.0078 H         1 <0>         0.1330
     29 H4          1.2098   -1.7641   -0.0196 H         1 <0>         0.1330
     30 H5          6.4110    1.4922    0.7145 H         1 <0>         0.1146
     31 H6          5.8952   -1.4956   -1.5697 H         1 <0>         0.0877
     32 H7          6.3604   -2.5998   -0.2509 H         1 <0>         0.0899
     33 H8          4.3408   -2.1619    0.9634 H         1 <0>         0.0758
     34 H9          3.8273   -2.3688   -0.7306 H         1 <0>         0.0918
     35 H10         7.1685   -2.7791    1.7238 H         1 <0>         0.1206
     36 H11         8.3374   -2.6341    0.3892 H         1 <0>         0.1203
     37 H12         9.9680   -1.5804    1.9317 H         1 <0>         0.1438
     38 H13         8.7992   -1.7254    3.2663 H         1 <0>         0.1436
     39 H14         8.8356   -4.0891    2.9533 H         1 <0>         0.4357
     40 H15         9.9176   -3.9550    1.7179 H         1 <0>         0.4355
     41 H16         6.1767    0.5924   -2.1970 H         1 <0>         0.0809
     42 H17         4.9072    2.6661   -1.7099 H         1 <0>         0.0650
     43 H18         6.3543    3.3741   -0.9530 H         1 <0>         0.0666
     44 H19         6.1311    2.4596   -3.8565 H         1 <0>         0.0640
     45 H20         6.1059    4.1486   -3.2954 H         1 <0>         0.0676
     46 H21         8.3681    3.5055   -4.0811 H         1 <0>         0.0660
     47 H22         8.3754    3.8643   -2.3377 H         1 <0>         0.0635
     48 H23         8.1977    1.0827   -3.5817 H         1 <0>         0.0619
     49 H24         9.6448    1.7907   -2.8247 H         1 <0>         0.0640
     50 H25         8.4209    1.9972   -0.6781 H         1 <0>         0.0670
     51 H26         8.4462    0.3082   -1.2392 H         1 <0>         0.0538
     52 H27        10.3574   -3.5304    3.2480 H         1 <0>         0.4435
@<TRIPOS>BOND
     1    1    6 ar
     2    1    2 ar
     3    1   27 1
     4    2    3 ar
     5    2   28 1
     6    3   10 1
     7    3    4 ar
     8    4    5 ar
     9    4    8 1
    10    5    6 ar
    11    5   29 1
    12    6    7 1
    13    8   15 1
    14    8    9 2
    15    9   10 1
    16    9   12 1
    17   10   11 1
    18   12   13 1
    19   12   21 1
    20   12   30 1
    21   13   14 1
    22   13   16 am
    23   14   15 1
    24   14   31 1
    25   14   32 1
    26   15   33 1
    27   15   34 1
    28   16   17 2
    29   16   18 1
    30   18   19 1
    31   18   35 1
    32   18   36 1
    33   19   20 1
    34   19   37 1
    35   19   38 1
    36   20   39 1
    37   20   40 1
    38   20   52 1
    39   21   26 1
    40   21   22 1
    41   21   41 1
    42   22   23 1
    43   22   42 1
    44   22   43 1
    45   23   24 1
    46   23   44 1
    47   23   45 1
    48   24   25 1
    49   24   46 1
    50   24   47 1
    51   25   26 1
    52   25   48 1
    53   25   49 1
    54   26   50 1
    55   26   51 1
@<TRIPOS>MOLECULE
CHEMBL1163881
   53    57     0     0     0
SMALL
USER_CHARGES

@<TRIPOS>ATOM
      1 C1         -0.1617    1.5874   -0.0031 C.3       1 <0>        -0.1534
      2 C2         -0.1029    0.0585   -0.0014 C.3       1 <0>        -0.1108
      3 C3         -1.5248   -0.5065   -0.0004 C.3       1 <0>        -0.1381
      4 C4         -1.4669   -2.0124    0.0013 C.2       1 <0>         0.5209
      5 O1         -0.3941   -2.5780    0.0017 O.2       1 <0>        -0.5304
      6 N1         -2.6074   -2.7306    0.0024 N.am      1 <0>        -0.6062
      7 C5         -3.9184   -2.0642   -0.0043 C.3       1 <0>         0.0993
      8 C6         -4.6429   -2.4042   -1.3123 C.3       1 <0>        -0.0590
      9 C7         -4.5065   -3.8816   -1.5784 C.2       1 <0>        -0.1631
     10 C8         -5.2935   -4.7093   -2.4702 C.ar      1 <0>        -0.0948
     11 C9         -6.3682   -4.4307   -3.3202 C.ar      1 <0>        -0.0688
     12 C10        -6.8818   -5.4834   -4.0366 C.ar      1 <0>        -0.1155
     13 C11        -6.3683   -6.7657   -3.9310 C.ar      1 <0>        -0.0984
     14 C12        -5.3058   -7.0696   -3.0978 C.ar      1 <0>        -0.1263
     15 C13        -4.7634   -6.0203   -2.3586 C.ar      1 <0>         0.0983
     16 N2         -3.7345   -5.9676   -1.4628 N.pl3     1 <0>        -0.5740
     17 H1         -3.1886   -6.7232   -1.1948 H         1 <0>         0.4143
     18 C14        -3.5891   -4.6868   -1.0003 C.2       1 <0>         0.0748
     19 C15        -2.5728   -4.2031    0.0041 C.3       1 <0>         0.2881
     20 C16        -2.9262   -4.7218    1.3741 C.2       1 <0>        -0.1825
     21 C17        -3.5554   -4.0436    2.3468 C.2       1 <0>         0.0722
     22 N3         -3.7033   -4.8394    3.4500 N.pl3     1 <0>        -0.5923
     23 H2         -4.1282   -4.5693    4.2791 H         1 <0>         0.4181
     24 C18        -3.1590   -6.0809    3.2080 C.ar      1 <0>         0.0984
     25 C19        -2.6540   -6.0637    1.8948 C.ar      1 <0>        -0.0921
     26 C20        -2.0426   -7.2030    1.3687 C.ar      1 <0>        -0.0796
     27 C21        -1.9408   -8.3320    2.1320 C.ar      1 <0>        -0.1386
     28 C22        -2.4410   -8.3554    3.4264 C.ar      1 <0>        -0.0979
     29 C23        -3.0400   -7.2392    3.9687 C.ar      1 <0>        -0.1254
     30 C24        -8.0412   -5.2362   -4.9669 C.3       1 <0>        -0.1119
     31 H3          0.8513    1.9899   -0.0038 H         1 <0>         0.0587
     32 H4         -0.6892    1.9297   -0.8934 H         1 <0>         0.0552
     33 H5         -0.6889    1.9318    0.8866 H         1 <0>         0.0545
     34 H6          0.4243   -0.2858   -0.8911 H         1 <0>         0.0699
     35 H7          0.4247   -0.2838    0.8889 H         1 <0>         0.0693
     36 H8         -2.0520   -0.1621    0.8893 H         1 <0>         0.0945
     37 H9         -2.0523   -0.1642   -0.8907 H         1 <0>         0.0963
     38 H10        -4.5097   -2.4137    0.8419 H         1 <0>         0.0774
     39 H11        -3.7797   -0.9853    0.0662 H         1 <0>         0.0966
     40 H12        -5.6980   -2.1455   -1.2228 H         1 <0>         0.0854
     41 H13        -4.1965   -1.8430   -2.1332 H         1 <0>         0.0767
     42 H14        -6.7749   -3.4342   -3.4094 H         1 <0>         0.1275
     43 H15        -6.8126   -7.5554   -4.5187 H         1 <0>         0.1205
     44 H16        -4.9150   -8.0738   -3.0239 H         1 <0>         0.1275
     45 H17        -1.5791   -4.5504   -0.2791 H         1 <0>         0.1139
     46 H18        -3.8943   -3.0210    2.2702 H         1 <0>         0.1708
     47 H19        -1.6518   -7.1924    0.3620 H         1 <0>         0.1145
     48 H20        -1.4677   -9.2132    1.7245 H         1 <0>         0.1243
     49 H21        -2.3537   -9.2554    4.0170 H         1 <0>         0.1272
     50 H22        -3.4271   -7.2677    4.9765 H         1 <0>         0.1216
     51 H23        -7.6643   -4.9763   -5.9562 H         1 <0>         0.0661
     52 H24        -8.6506   -6.1373   -5.0355 H         1 <0>         0.0628
     53 H25        -8.6474   -4.4160   -4.5821 H         1 <0>         0.0631
@<TRIPOS>BOND
     1    1    2 1
     2    1   31 1
     3    1   32 1
     4    1   33 1
     5    2    3 1
     6    2   34 1
     7    2   35 1
     8    3    4 1
     9    3   36 1
    10    3   37 1
    11    4    5 2
    12    4    6 am
    13    6   19 1
    14    6    7 1
    15    7    8 1
    16    7   38 1
    17    7   39 1
    18    8    9 1
    19    8   40 1
    20    8   41 1
    21    9   18 2
    22    9   10 1
    23   10   15 ar
    24   10   11 ar
    25   11   12 ar
    26   11   42 1
    27   12   13 ar
    28   12   30 1
    29   13   14 ar
    30   13   43 1
    31   14   15 ar
    32   14   44 1
    33   15   16 1
    34   16   17 1
    35   16   18 1
    36   18   19 1
    37   19   20 1
    38   19   45 1
    39   20   25 1
    40   20   21 2
    41   21   22 1
    42   21   46 1
    43   22   23 1
    44   22   24 1
    45   24   29 ar
    46   24   25 ar
    47   25   26 ar
    48   26   27 ar
    49   26   47 1
    50   27   28 ar
    51   27   48 1
    52   28   29 ar
    53   28   49 1
    54   29   50 1
    55   30   51 1
    56   30   52 1
    57   30   53 1
@<TRIPOS>MOLECULE
CHEMBL1163881__1
   53    57     0     0     0
SMALL
USER_CHARGES

@<TRIPOS>ATOM
      1 C1         -0.6468    1.7656    0.0961 C.3       1 <0>        -0.1534
      2 C2         -0.4632    0.2478    0.0382 C.3       1 <0>        -0.1108
      3 C3         -1.8322   -0.4338    0.0866 C.3       1 <0>        -0.1382
      4 C4         -1.6513   -1.9288    0.0295 C.2       1 <0>         0.5208
      5 O1         -0.5372   -2.4025   -0.0428 O.2       1 <0>        -0.5305
      6 N1         -2.7277   -2.7394    0.0588 N.am      1 <0>        -0.6066
      7 C5         -4.0874   -2.1849    0.1401 C.3       1 <0>         0.0991
      8 C6         -4.7216   -2.6146    1.4685 C.3       1 <0>        -0.0587
      9 C7         -4.4522   -4.0813    1.6885 C.2       1 <0>        -0.1630
     10 C8         -5.1273   -4.9923    2.5908 C.ar      1 <0>        -0.0948
     11 C9         -6.1821   -4.8242    3.4931 C.ar      1 <0>        -0.0689
     12 C10        -6.5750   -5.9327    4.2017 C.ar      1 <0>        -0.1155
     13 C11        -5.9631   -7.1650    4.0394 C.ar      1 <0>        -0.0985
     14 C12        -4.9175   -7.3596    3.1537 C.ar      1 <0>        -0.1263
     15 C13        -4.4968   -6.2516    2.4209 C.ar      1 <0>         0.0981
     16 N2         -3.5173   -6.0923    1.4834 N.pl3     1 <0>        -0.5741
     17 H1         -2.9239   -6.7934    1.1715 H         1 <0>         0.4144
     18 C14        -3.4988   -4.7935    1.0498 C.2       1 <0>         0.0746
     19 C15        -2.5728   -4.2031    0.0041 C.3       1 <0>         0.2889
     20 C16        -2.9519   -4.7071   -1.3647 C.2       1 <0>        -0.1824
     21 C17        -3.6796   -4.0525   -2.2832 C.2       1 <0>         0.0721
     22 N3         -3.8191   -4.8242   -3.4045 N.pl3     1 <0>        -0.5922
     23 H2         -4.3045   -4.5642   -4.2031 H         1 <0>         0.4181
     24 C18        -3.1679   -6.0248   -3.2305 C.ar      1 <0>         0.0984
     25 C19        -2.5907   -6.0016   -1.9474 C.ar      1 <0>        -0.0920
     26 C20        -1.8547   -7.0980   -1.4949 C.ar      1 <0>        -0.0792
     27 C21        -1.6953   -8.1884   -2.3031 C.ar      1 <0>        -0.1388
     28 C22        -2.2592   -8.2146   -3.5710 C.ar      1 <0>        -0.0978
     29 C23        -2.9973   -7.1471   -4.0341 C.ar      1 <0>        -0.1256
     30 C24        -7.7074   -5.8047    5.1877 C.3       1 <0>        -0.1118
     31 H3          0.3285    2.2511    0.0616 H         1 <0>         0.0587
     32 H4         -1.2453    2.0919   -0.7544 H         1 <0>         0.0545
     33 H5         -1.1542    2.0351    1.0223 H         1 <0>         0.0552
     34 H6          0.0443   -0.0218   -0.8881 H         1 <0>         0.0693
     35 H7          0.1354   -0.0786    0.8886 H         1 <0>         0.0699
     36 H8         -2.3396   -0.1642    1.0128 H         1 <0>         0.0964
     37 H9         -2.4307   -0.1074   -0.7639 H         1 <0>         0.0944
     38 H10        -4.0413   -1.0969    0.0928 H         1 <0>         0.0965
     39 H11        -4.6858   -2.5628   -0.6890 H         1 <0>         0.0775
     40 H12        -4.2861   -2.0373    2.2842 H         1 <0>         0.0767
     41 H13        -5.7973   -2.4428    1.4317 H         1 <0>         0.0853
     42 H14        -6.6650   -3.8674    3.6266 H         1 <0>         0.1275
     43 H15        -6.3143   -8.0026    4.6238 H         1 <0>         0.1205
     44 H16        -4.4493   -8.3256    3.0359 H         1 <0>         0.1275
     45 H17        -1.5409   -4.4747    0.2267 H         1 <0>         0.1141
     46 H18        -4.0940   -3.0633   -2.1560 H         1 <0>         0.1710
     47 H19        -1.4124   -7.0844   -0.5097 H         1 <0>         0.1148
     48 H20        -1.1258   -9.0364   -1.9525 H         1 <0>         0.1243
     49 H21        -2.1239   -9.0832   -4.1983 H         1 <0>         0.1271
     50 H22        -3.4311   -7.1766   -5.0227 H         1 <0>         0.1216
     51 H23        -8.6523   -6.0095    4.6844 H         1 <0>         0.0658
     52 H24        -7.5655   -6.5190    5.9988 H         1 <0>         0.0629
     53 H25        -7.7235   -4.7931    5.5932 H         1 <0>         0.0632
@<TRIPOS>BOND
     1    1    2 1
     2    1   31 1
     3    1   32 1
     4    1   33 1
     5    2    3 1
     6    2   34 1
     7    2   35 1
     8    3    4 1
     9    3   36 1
    10    3   37 1
    11    4    5 2
    12    4    6 am
    13    6   19 1
    14    6    7 1
    15    7    8 1
    16    7   38 1
    17    7   39 1
    18    8    9 1
    19    8   40 1
    20    8   41 1
    21    9   18 2
    22    9   10 1
    23   10   15 ar
    24   10   11 ar
    25   11   12 ar
    26   11   42 1
    27   12   13 ar
    28   12   30 1
    29   13   14 ar
    30   13   43 1
    31   14   15 ar
    32   14   44 1
    33   15   16 1
    34   16   17 1
    35   16   18 1
    36   18   19 1
    37   19   20 1
    38   19   45 1
    39   20   25 1
    40   20   21 2
    41   21   22 1
    42   21   46 1
    43   22   23 1
    44   22   24 1
    45   24   29 ar
    46   24   25 ar
    47   25   26 ar
    48   26   27 ar
    49   26   47 1
    50   27   28 ar
    51   27   48 1
    52   28   29 ar
    53   28   49 1
    54   29   50 1
    55   30   51 1
    56   30   52 1
    57   30   53 1
@<TRIPOS>MOLECULE
CHEMBL381794
   47    50     0     0     0
SMALL
USER_CHARGES

@<TRIPOS>ATOM
      1 C1         -0.1561    1.3726   -2.3941 C.3       1 <0>         0.1046
      2 N1         -0.2828   -0.0827   -2.2832 N.am      1 <0>        -0.6386
      3 C2         -0.7169   -0.8703   -3.4397 C.3       1 <0>         0.0712
      4 C3          0.0000   -0.6969   -1.1174 C.2       1 <0>         0.7151
      5 O1          0.1179   -0.0433   -0.0989 O.2       1 <0>        -0.5756
      6 N2          0.1522   -2.0355   -1.0805 N.am      1 <0>        -0.6312
      7 C4          0.0393   -2.7820    0.1772 C.3       1 <0>         0.1773
      8 C5          1.1558   -3.7917    0.2699 C.ar      1 <0>        -0.1048
      9 C6          1.9609   -4.1012   -0.8007 C.ar      1 <0>        -0.0334
     10 C7          2.9639   -5.0532   -0.6579 C.ar      1 <0>        -0.1353
     11 C8          3.1615   -5.6834    0.5546 C.ar      1 <0>        -0.0680
     12 C9          2.3618   -5.3657    1.6290 C.ar      1 <0>        -0.1713
     13 C10         1.3570   -4.4180    1.5035 C.ar      1 <0>         0.1118
     14 O2          0.6994   -4.2371    2.6821 O.3       1 <0>        -0.3010
     15 C11         0.9393   -5.3689    3.5359 C.3       1 <0>         0.0513
     16 C12         2.3222   -5.8718    3.0577 C.3       1 <0>        -0.1104
     17 C13         1.8213   -3.4371   -2.1460 C.3       1 <0>        -0.0200
     18 C14         0.4322   -2.8086   -2.3018 C.3       1 <0>         0.0814
     19 C15         2.0225   -4.4651   -3.2294 C.ar      1 <0>        -0.0588
     20 C16         1.1806   -5.5594   -3.3083 C.ar      1 <0>        -0.1147
     21 C17         1.3625   -6.5042   -4.3010 C.ar      1 <0>        -0.0984
     22 C18         2.3867   -6.3574   -5.2167 C.ar      1 <0>        -0.1446
     23 C19         3.2325   -5.2607   -5.1397 C.ar      1 <0>         0.1086
     24 C20         3.0440   -4.3107   -4.1461 C.ar      1 <0>        -0.1392
     25 O3          4.2405   -5.1141   -6.0392 O.3       1 <0>        -0.4992
     26 H1         -1.1034    1.8412   -2.1274 H         1 <0>         0.0553
     27 H2          0.6248    1.7218   -1.7185 H         1 <0>         0.0745
     28 H3          0.1047    1.6376   -3.4187 H         1 <0>         0.0698
     29 H4          0.1423   -1.0886   -4.0738 H         1 <0>         0.0635
     30 H5         -1.1620   -1.8044   -3.0967 H         1 <0>         0.0808
     31 H6         -1.4541   -0.3041   -4.0089 H         1 <0>         0.0724
     32 H7          0.1052   -2.0902    1.0169 H         1 <0>         0.1047
     33 H8         -0.9202   -3.2983    0.2077 H         1 <0>         0.0766
     34 H9          3.5921   -5.3015   -1.5006 H         1 <0>         0.1275
     35 H10         3.9410   -6.4236    0.6596 H         1 <0>         0.1261
     36 H11         0.9802   -5.0623    4.5811 H         1 <0>         0.1083
     37 H12         0.1773   -6.1338    3.3863 H         1 <0>         0.0784
     38 H13         2.3724   -6.9603    3.0871 H         1 <0>         0.0925
     39 H14         3.1236   -5.4301    3.6500 H         1 <0>         0.0917
     40 H15         2.5809   -2.6614   -2.2434 H         1 <0>         0.0963
     41 H16        -0.3173   -3.5906   -2.4232 H         1 <0>         0.0785
     42 H17         0.4193   -2.1470   -3.1680 H         1 <0>         0.1246
     43 H18         0.3799   -5.6762   -2.5930 H         1 <0>         0.1240
     44 H19         0.7037   -7.3579   -4.3606 H         1 <0>         0.1282
     45 H20         2.5288   -7.0962   -5.9916 H         1 <0>         0.1287
     46 H21         3.6983   -3.4535   -4.0869 H         1 <0>         0.1289
     47 H22         3.9920   -4.6177   -6.8310 H         1 <0>         0.3918
@<TRIPOS>BOND
     1    1    2 1
     2    1   26 1
     3    1   27 1
     4    1   28 1
     5    2    3 1
     6    2    4 am
     7    3   29 1
     8    3   30 1
     9    3   31 1
    10    4    5 2
    11    4    6 am
    12    6   18 1
    13    6    7 1
    14    7    8 1
    15    7   32 1
    16    7   33 1
    17    8   13 ar
    18    8    9 ar
    19    9   10 ar
    20    9   17 1
    21   10   11 ar
    22   10   34 1
    23   11   12 ar
    24   11   35 1
    25   12   16 1
    26   12   13 ar
    27   13   14 1
    28   14   15 1
    29   15   16 1
    30   15   36 1
    31   15   37 1
    32   16   38 1
    33   16   39 1
    34   17   18 1
    35   17   19 1
    36   17   40 1
    37   18   41 1
    38   18   42 1
    39   19   24 ar
    40   19   20 ar
    41   20   21 ar
    42   20   43 1
    43   21   22 ar
    44   21   44 1
    45   22   23 ar
    46   22   45 1
    47   23   24 ar
    48   23   25 1
    49   24   46 1
    50   25   47 1
@<TRIPOS>MOLECULE
CHEMBL381794__1
   47    50     0     0     0
SMALL
USER_CHARGES

@<TRIPOS>ATOM
      1 C1          0.1427    1.4658    0.0128 C.3       1 <0>         0.1044
      2 N1          0.1944    0.0018    0.0057 N.am      1 <0>        -0.6370
      3 C2          0.4980   -0.7265    1.2401 C.3       1 <0>         0.0637
      4 C3         -0.0374   -0.6752   -1.1365 C.2       1 <0>         0.7148
      5 O1         -0.1173   -0.0771   -2.1921 O.2       1 <0>        -0.5793
      6 N2         -0.1807   -2.0150   -1.1085 N.am      1 <0>        -0.6302
      7 C4         -0.3992   -2.7328    0.1519 C.3       1 <0>         0.1309
      8 C5         -1.4899   -3.7584   -0.0304 C.ar      1 <0>        -0.1116
      9 C6         -1.9784   -4.1030   -1.2684 C.ar      1 <0>        -0.0289
     10 C7         -2.9726   -5.0689   -1.3741 C.ar      1 <0>        -0.1344
     11 C8         -3.4825   -5.6733   -0.2423 C.ar      1 <0>        -0.0671
     12 C9         -3.0022   -5.3186    0.9980 C.ar      1 <0>        -0.1721
     13 C10        -2.0004   -4.3673    1.1199 C.ar      1 <0>         0.1097
     14 O2         -1.6528   -4.1811    2.4232 O.3       1 <0>        -0.3031
     15 C11        -2.7071   -4.6726    3.2685 C.3       1 <0>         0.0517
     16 C12        -3.3572   -5.7752    2.3996 C.3       1 <0>        -0.1105
     17 C13        -1.4936   -3.4644   -2.5441 C.3       1 <0>        -0.0209
     18 C14        -0.1303   -2.8164   -2.3425 C.3       1 <0>         0.1396
     19 C15        -1.3904   -4.5171   -3.6175 C.ar      1 <0>        -0.0583
     20 C16        -0.5557   -5.6053   -3.4399 C.ar      1 <0>        -0.1150
     21 C17        -0.4588   -6.5728   -4.4226 C.ar      1 <0>        -0.0994
     22 C18        -1.1958   -6.4544   -5.5853 C.ar      1 <0>        -0.1445
     23 C19        -2.0338   -5.3638   -5.7658 C.ar      1 <0>         0.1080
     24 C20        -2.1339   -4.3973   -4.7753 C.ar      1 <0>        -0.1368
     25 O3         -2.7598   -5.2451   -6.9085 O.3       1 <0>        -0.4987
     26 H1          1.1320    1.8654   -0.2104 H         1 <0>         0.0550
     27 H2         -0.5660    1.8081   -0.7413 H         1 <0>         0.0754
     28 H3         -0.1763    1.8134    0.9955 H         1 <0>         0.0696
     29 H4         -0.4227   -0.8936    1.7991 H         1 <0>         0.0625
     30 H5          0.9525   -1.6860    0.9934 H         1 <0>         0.0855
     31 H6          1.1900   -0.1417    1.8461 H         1 <0>         0.0714
     32 H7          0.5227   -3.2326    0.4492 H         1 <0>         0.0801
     33 H8         -0.6931   -2.0244    0.9265 H         1 <0>         0.1202
     34 H9         -3.3486   -5.3479   -2.3474 H         1 <0>         0.1278
     35 H10        -4.2561   -6.4219   -0.3298 H         1 <0>         0.1262
     36 H11        -2.3002   -5.0945    4.1875 H         1 <0>         0.1088
     37 H12        -3.4248   -3.8827    3.4896 H         1 <0>         0.0781
     38 H13        -4.4378   -5.7963    2.5406 H         1 <0>         0.0923
     39 H14        -2.9185   -6.7495    2.6148 H         1 <0>         0.0917
     40 H15        -2.2076   -2.7027   -2.8576 H         1 <0>         0.1000
     41 H16         0.0983   -2.1722   -3.1915 H         1 <0>         0.1021
     42 H17         0.6326   -3.5894   -2.2493 H         1 <0>         0.0766
     43 H18         0.0217   -5.6993   -2.5321 H         1 <0>         0.1237
     44 H19         0.1938   -7.4216   -4.2815 H         1 <0>         0.1281
     45 H20        -1.1192   -7.2101   -6.3530 H         1 <0>         0.1287
     46 H21        -2.7892   -3.5497   -4.9115 H         1 <0>         0.1300
     47 H22        -3.6330   -5.6583   -6.8644 H         1 <0>         0.3912
@<TRIPOS>BOND
     1    1    2 1
     2    1   26 1
     3    1   27 1
     4    1   28 1
     5    2    3 1
     6    2    4 am
     7    3   29 1
     8    3   30 1
     9    3   31 1
    10    4    5 2
    11    4    6 am
    12    6   18 1
    13    6    7 1
    14    7    8 1
    15    7   32 1
    16    7   33 1
    17    8   13 ar
    18    8    9 ar
    19    9   10 ar
    20    9   17 1
    21   10   11 ar
    22   10   34 1
    23   11   12 ar
    24   11   35 1
    25   12   16 1
    26   12   13 ar
    27   13   14 1
    28   14   15 1
    29   15   16 1
    30   15   36 1
    31   15   37 1
    32   16   38 1
    33   16   39 1
    34   17   18 1
    35   17   19 1
    36   17   40 1
    37   18   41 1
    38   18   42 1
    39   19   24 ar
    40   19   20 ar
    41   20   21 ar
    42   20   43 1
    43   21   22 ar
    44   21   44 1
    45   22   23 ar
    46   22   45 1
    47   23   24 ar
    48   23   25 1
    49   24   46 1
    50   25   47 1
@<TRIPOS>MOLECULE
CHEMBL210264
   54    57     0     0     0
SMALL
USER_CHARGES

@<TRIPOS>ATOM
      1 C1         -0.0094    1.3918   -0.0135 C.ar      1 <0>        -0.1069
      2 C2          1.1807    2.0950   -0.0124 C.ar      1 <0>        -0.1127
      3 C3          2.3847    1.4160   -0.0204 C.ar      1 <0>        -0.0931
      4 C4          2.3987    0.0337   -0.0289 C.ar      1 <0>        -0.0934
      5 C5          1.2086   -0.6695   -0.0291 C.ar      1 <0>        -0.1066
      6 C6          0.0045    0.0095   -0.0226 C.ar      1 <0>        -0.1151
      7 C7          3.7113   -0.7065   -0.0386 C.3       1 <0>         0.2070
      8 C8          4.2532   -0.8688    1.3954 C.3       1 <0>        -0.1224
      9 C9          5.5710   -0.1278    1.3727 C.2       1 <0>         0.1225
     10 N1          5.7689    0.3624    0.1984 N.2       1 <0>        -0.2112
     11 N2          4.7499    0.0895   -0.7118 N.am      1 <0>        -0.4701
     12 C10         4.7204    0.4889   -1.9987 C.2       1 <0>         0.7656
     13 O1          3.7374    0.2709   -2.6806 O.2       1 <0>        -0.5578
     14 N3          5.7803    1.1300   -2.5298 N.am      1 <0>        -0.6524
     15 C11         7.1048    1.5590   -2.0559 C.3       1 <0>         0.1092
     16 C12         7.0578    2.6783   -3.1051 C.3       1 <0>        -0.1585
     17 C13         6.1239    1.7027   -3.8400 C.3       1 <0>         0.1235
     18 C14         6.4881    0.0125    2.5189 C.ar      1 <0>        -0.0437
     19 C15         6.1691   -0.5692    3.7481 C.ar      1 <0>        -0.1021
     20 C16         7.0330   -0.4341    4.8172 C.ar      1 <0>         0.0961
     21 C17         8.2140    0.2770    4.6727 C.ar      1 <0>        -0.1030
     22 C18         8.5361    0.8559    3.4589 C.ar      1 <0>        -0.1231
     23 C19         7.6842    0.7237    2.3788 C.ar      1 <0>         0.1250
     24 F1          8.0033    1.2848    1.1920 F         1 <0>        -0.1150
     25 F2          6.7261   -0.9961    6.0068 F         1 <0>        -0.1260
     26 C20         3.5540   -2.0695   -0.7158 C.3       1 <0>        -0.1197
     27 C21         4.9234   -2.7416   -0.8333 C.3       1 <0>        -0.1551
     28 C22         4.7853   -4.0464   -1.6203 C.3       1 <0>        -0.0067
     29 N4          6.1001   -4.6918   -1.7331 N.4       1 <0>        -0.6376
     30 H1         -0.9501    1.9223   -0.0028 H         1 <0>         0.1272
     31 H2          1.1698    3.1749   -0.0058 H         1 <0>         0.1248
     32 H3          3.3145    1.9654   -0.0203 H         1 <0>         0.1110
     33 H4          1.2194   -1.7494   -0.0361 H         1 <0>         0.1221
     34 H5         -0.9253   -0.5399   -0.0231 H         1 <0>         0.1276
     35 H6          3.5719   -0.4152    2.1153 H         1 <0>         0.1144
     36 H7          4.4108   -1.9220    1.6277 H         1 <0>         0.1087
     37 H8          7.1008    1.9257   -1.0294 H         1 <0>         0.0918
     38 H9          7.8898    0.8252   -2.2388 H         1 <0>         0.0790
     39 H10         6.5737    3.5926   -2.7618 H         1 <0>         0.0970
     40 H11         8.0058    2.8547   -3.6133 H         1 <0>         0.0959
     41 H12         6.6503    1.0069   -4.4933 H         1 <0>         0.0856
     42 H13         5.2842    2.1919   -4.3336 H         1 <0>         0.0814
     43 H14         5.2489   -1.1229    3.8623 H         1 <0>         0.1511
     44 H15         8.8857    0.3796    5.5122 H         1 <0>         0.1546
     45 H16         9.4578    1.4089    3.3536 H         1 <0>         0.1557
     46 H17         2.8912   -2.6969   -0.1199 H         1 <0>         0.0965
     47 H18         3.1291   -1.9341   -1.7104 H         1 <0>         0.0999
     48 H19         5.6119   -2.0751   -1.3528 H         1 <0>         0.0861
     49 H20         5.3090   -2.9574    0.1631 H         1 <0>         0.0895
     50 H21         4.0968   -4.7129   -1.1008 H         1 <0>         0.1379
     51 H22         4.3997   -3.8306   -2.6167 H         1 <0>         0.1357
     52 H23         6.4570   -4.8915   -0.8108 H         1 <0>         0.4349
     53 H24         6.0090   -5.5522   -2.2522 H         1 <0>         0.4399
     54 H25         6.7374   -4.0748   -2.2140 H         1 <0>         0.4350
@<TRIPOS>BOND
     1    1    6 ar
     2    1    2 ar
     3    1   30 1
     4    2    3 ar
     5    2   31 1
     6    3    4 ar
     7    3   32 1
     8    4    5 ar
     9    4    7 1
    10    5    6 ar
    11    5   33 1
    12    6   34 1
    13    7   11 1
    14    7    8 1
    15    7   26 1
    16    8    9 1
    17    8   35 1
    18    8   36 1
    19    9   10 2
    20    9   18 1
    21   10   11 1
    22   11   12 am
    23   12   13 2
    24   12   14 am
    25   14   17 1
    26   14   15 1
    27   15   16 1
    28   15   37 1
    29   15   38 1
    30   16   17 1
    31   16   39 1
    32   16   40 1
    33   17   41 1
    34   17   42 1
    35   18   23 ar
    36   18   19 ar
    37   19   20 ar
    38   19   43 1
    39   20   21 ar
    40   20   25 1
    41   21   22 ar
    42   21   44 1
    43   22   23 ar
    44   22   45 1
    45   23   24 1
    46   26   27 1
    47   26   46 1
    48   26   47 1
    49   27   28 1
    50   27   48 1
    51   27   49 1
    52   28   29 1
    53   28   50 1
    54   28   51 1
    55   29   52 1
    56   29   53 1
    57   29   54 1
@<TRIPOS>MOLECULE
CHEMBL210264__1
   54    57     0     0     0
SMALL
USER_CHARGES

@<TRIPOS>ATOM
      1 C1          0.0794    1.5119    0.1785 C.ar      1 <0>        -0.1067
      2 C2          1.2866    2.1764    0.0683 C.ar      1 <0>        -0.1126
      3 C3          2.4669    1.4596    0.0057 C.ar      1 <0>        -0.0970
      4 C4          2.4402    0.0783    0.0539 C.ar      1 <0>        -0.0956
      5 C5          1.2331   -0.5861    0.1650 C.ar      1 <0>        -0.1054
      6 C6          0.0526    0.1306    0.2261 C.ar      1 <0>        -0.1146
      7 C7          3.7269   -0.7031   -0.0153 C.3       1 <0>         0.2073
      8 C8          4.1509   -0.9214   -1.4813 C.3       1 <0>        -0.1223
      9 C9          5.4880   -0.2227   -1.5814 C.2       1 <0>         0.1207
     10 N1          5.7910    0.2925   -0.4406 N.2       1 <0>        -0.2099
     11 N2          4.8378    0.0771    0.5526 N.am      1 <0>        -0.4700
     12 C10         4.9197    0.5127    1.8254 C.2       1 <0>         0.7677
     13 O1          4.0708    0.1903    2.6342 O.2       1 <0>        -0.5612
     14 N3          5.9425    1.3055    2.2019 N.am      1 <0>        -0.6525
     15 C11         7.1181    1.8997    1.5477 C.3       1 <0>         0.1097
     16 C12         7.8127    1.8988    2.9165 C.3       1 <0>        -0.1574
     17 C13         6.3706    1.9627    3.4460 C.3       1 <0>         0.1243
     18 C14         6.3177   -0.1437   -2.7979 C.ar      1 <0>        -0.0436
     19 C15         5.8822   -0.7387   -3.9841 C.ar      1 <0>        -0.1024
     20 C16         6.6643   -0.6604   -5.1199 C.ar      1 <0>         0.0959
     21 C17         7.8790    0.0064   -5.0843 C.ar      1 <0>        -0.1030
     22 C18         8.3167    0.5975   -3.9133 C.ar      1 <0>        -0.1231
     23 C19         7.5418    0.5324   -2.7709 C.ar      1 <0>         0.1251
     24 F1          7.9681    1.1156   -1.6293 F         1 <0>        -0.1148
     25 F2          6.2446   -1.2353   -6.2681 F         1 <0>        -0.1261
     26 C20         3.5819   -2.0415    0.7117 C.3       1 <0>        -0.1195
     27 C21         4.9362   -2.7524    0.7464 C.3       1 <0>        -0.1534
     28 C22         4.7691   -4.1378    1.3738 C.3       1 <0>        -0.0066
     29 N4          6.0695   -4.8203    1.4071 N.4       1 <0>        -0.6378
     30 H1         -0.8424    2.0720    0.2319 H         1 <0>         0.1278
     31 H2          1.3075    3.2555    0.0306 H         1 <0>         0.1251
     32 H3          3.4100    1.9787   -0.0811 H         1 <0>         0.1114
     33 H4          1.2122   -1.6653    0.2023 H         1 <0>         0.1230
     34 H5         -0.8905   -0.3886    0.3126 H         1 <0>         0.1282
     35 H6          4.2584   -1.9850   -1.6939 H         1 <0>         0.1085
     36 H7          3.4297   -0.4658   -2.1598 H         1 <0>         0.1142
     37 H8          7.5905    1.2390    0.8208 H         1 <0>         0.0902
     38 H9          6.9366    2.8996    1.1538 H         1 <0>         0.0827
     39 H10         8.3376    0.9726    3.1507 H         1 <0>         0.0926
     40 H11         8.4012    2.7935    3.1197 H         1 <0>         0.0966
     41 H12         5.9920    2.9793    3.5524 H         1 <0>         0.0887
     42 H13         6.2062    1.3557    4.3363 H         1 <0>         0.0795
     43 H14         4.9363   -1.2592   -4.0131 H         1 <0>         0.1510
     44 H15         8.4866    0.0643   -5.9753 H         1 <0>         0.1546
     45 H16         9.2644    1.1151   -3.8927 H         1 <0>         0.1557
     46 H17         3.2375   -1.8659    1.7309 H         1 <0>         0.1035
     47 H18         2.8581   -2.6641    0.1859 H         1 <0>         0.0941
     48 H19         5.3177   -2.8571   -0.2693 H         1 <0>         0.0874
     49 H20         5.6387   -2.1671    1.3398 H         1 <0>         0.0866
     50 H21         4.3877   -4.0330    2.3895 H         1 <0>         0.1365
     51 H22         4.0667   -4.7230    0.7805 H         1 <0>         0.1372
     52 H23         6.7198   -4.2786    1.9564 H         1 <0>         0.4355
     53 H24         5.9593   -5.7340    1.8209 H         1 <0>         0.4397
     54 H25         6.4226   -4.9173    0.4669 H         1 <0>         0.4346
@<TRIPOS>BOND
     1    1    6 ar
     2    1    2 ar
     3    1   30 1
     4    2    3 ar
     5    2   31 1
     6    3    4 ar
     7    3   32 1
     8    4    5 ar
     9    4    7 1
    10    5    6 ar
    11    5   33 1
    12    6   34 1
    13    7   11 1
    14    7    8 1
    15    7   26 1
    16    8    9 1
    17    8   35 1
    18    8   36 1
    19    9   10 2
    20    9   18 1
    21   10   11 1
    22   11   12 am
    23   12   13 2
    24   12   14 am
    25   14   17 1
    26   14   15 1
    27   15   16 1
    28   15   37 1
    29   15   38 1
    30   16   17 1
    31   16   39 1
    32   16   40 1
    33   17   41 1
    34   17   42 1
    35   18   23 ar
    36   18   19 ar
    37   19   20 ar
    38   19   43 1
    39   20   21 ar
    40   20   25 1
    41   21   22 ar
    42   21   44 1
    43   22   23 ar
    44   22   45 1
    45   23   24 1
    46   26   27 1
    47   26   46 1
    48   26   47 1
    49   27   28 1
    50   27   48 1
    51   27   49 1
    52   28   29 1
    53   28   50 1
    54   28   51 1
    55   29   52 1
    56   29   53 1
    57   29   54 1
@<TRIPOS>MOLECULE
CHEMBL377596
   46    49     0     0     0
SMALL
USER_CHARGES

@<TRIPOS>ATOM
      1 C1         -0.0167    1.3770    0.0096 C.ar      1 <0>        -0.1018
      2 C2          1.1707    2.0858    0.0021 C.ar      1 <0>        -0.1049
      3 C3          2.3791    1.4145   -0.0130 C.ar      1 <0>        -0.0698
      4 C4          2.4032    0.0331   -0.0211 C.ar      1 <0>        -0.1276
      5 C5          1.2136   -0.6802   -0.0135 C.ar      1 <0>         0.1077
      6 C6          0.0021   -0.0041    0.0020 C.ar      1 <0>        -0.1410
      7 O1          1.2347   -2.0390   -0.0215 O.3       1 <0>        -0.4978
      8 C7          3.6712    2.1901   -0.0212 C.3       1 <0>         0.2018
      9 H1          4.4836    1.5532   -0.3711 H         1 <0>         0.1001
     10 C8          3.9755    2.6931    1.3653 C.2       1 <0>        -0.1126
     11 C9          4.0304    4.0125    1.3617 C.2       1 <0>        -0.1091
     12 C10         3.7686    4.5316   -0.0275 C.3       1 <0>         0.1351
     13 N1          3.5440    3.3638   -0.8959 N.am      1 <0>        -0.6113
     14 C11         3.2768    3.3682   -2.2169 C.2       1 <0>         0.5157
     15 O2          3.1131    2.3207   -2.8059 O.2       1 <0>        -0.5095
     16 C12         3.1816    4.6746   -2.9620 C.3       1 <0>         0.1309
     17 H2          4.0964    5.2473   -2.8096 H         1 <0>         0.1286
     18 C13         1.9864    5.4740   -2.4391 C.3       1 <0>        -0.2032
     19 C14         0.7946    5.6599   -3.3803 C.3       1 <0>        -0.1705
     20 C15         1.7183    6.8403   -3.0733 C.3       1 <0>        -0.1584
     21 O3          3.0082    4.4160   -4.3566 O.3       1 <0>        -0.5319
     22 C16         4.3066    4.8541    2.5447 C.ar      1 <0>        -0.0418
     23 C17         5.5514    5.4664    2.6936 C.ar      1 <0>        -0.1089
     24 C18         5.8033    6.2519    3.8019 C.ar      1 <0>         0.0941
     25 C19         4.8228    6.4323    4.7645 C.ar      1 <0>        -0.1178
     26 C20         3.5872    5.8283    4.6229 C.ar      1 <0>        -0.1220
     27 C21         3.3204    5.0446    3.5159 C.ar      1 <0>         0.1063
     28 F1          2.1107    4.4596    3.3762 F         1 <0>        -0.1261
     29 F2          7.0083    6.8451    3.9478 F         1 <0>        -0.1307
     30 H3         -0.9594    1.9037    0.0259 H         1 <0>         0.1267
     31 H4          1.1540    3.1657    0.0076 H         1 <0>         0.1171
     32 H5          3.3475   -0.4909   -0.0336 H         1 <0>         0.1289
     33 H6         -0.9255   -0.5572    0.0082 H         1 <0>         0.1290
     34 H7          1.2494   -2.4373    0.8596 H         1 <0>         0.3907
     35 H8          4.1258    2.0681    2.2331 H         1 <0>         0.1543
     36 H9          2.8839    5.1683   -0.0247 H         1 <0>         0.0875
     37 H10         4.6321    5.0946   -0.3817 H         1 <0>         0.0890
     38 H11         1.7756    5.3628   -1.3754 H         1 <0>         0.1150
     39 H12         0.8619    5.2127   -4.3721 H         1 <0>         0.1028
     40 H13        -0.2007    5.6709   -2.9360 H         1 <0>         0.0989
     41 H14         1.3308    7.6278   -2.4271 H         1 <0>         0.0989
     42 H15         2.3935    7.1696   -3.8632 H         1 <0>         0.1027
     43 H16         2.2119    3.9090   -4.5666 H         1 <0>         0.3855
     44 H17         6.3165    5.3263    1.9444 H         1 <0>         0.1492
     45 H18         5.0248    7.0470    5.6292 H         1 <0>         0.1494
     46 H19         2.8273    5.9728    5.3766 H         1 <0>         0.1506
@<TRIPOS>BOND
     1    1    6 ar
     2    1    2 ar
     3    1   30 1
     4    2    3 ar
     5    2   31 1
     6    3    4 ar
     7    3    8 1
     8    4    5 ar
     9    4   32 1
    10    5    6 ar
    11    5    7 1
    12    6   33 1
    13    7   34 1
    14    8    9 1
    15    8   13 1
    16    8   10 1
    17   10   11 2
    18   10   35 1
    19   11   12 1
    20   11   22 1
    21   12   13 1
    22   12   36 1
    23   12   37 1
    24   13   14 am
    25   14   15 2
    26   14   16 1
    27   16   17 1
    28   16   18 1
    29   16   21 1
    30   18   20 1
    31   18   19 1
    32   18   38 1
    33   19   20 1
    34   19   39 1
    35   19   40 1
    36   20   41 1
    37   20   42 1
    38   21   43 1
    39   22   27 ar
    40   22   23 ar
    41   23   24 ar
    42   23   44 1
    43   24   25 ar
    44   24   29 1
    45   25   26 ar
    46   25   45 1
    47   26   27 ar
    48   26   46 1
    49   27   28 1
@<TRIPOS>MOLECULE
CHEMBL204459
   47    50     0     0     0
SMALL
USER_CHARGES

@<TRIPOS>ATOM
      1 C1         -0.0167    1.3781    0.0096 C.ar      1 <0>        -0.1077
      2 C2          1.1709    2.0855    0.0021 C.ar      1 <0>        -0.1128
      3 C3          2.3773    1.4107   -0.0130 C.ar      1 <0>        -0.0982
      4 C4          2.3960    0.0285   -0.0201 C.ar      1 <0>        -0.1001
      5 C5          1.2084   -0.6789   -0.0117 C.ar      1 <0>        -0.1013
      6 C6          0.0021   -0.0041    0.0020 C.ar      1 <0>        -0.1178
      7 C7          3.7112   -0.7071   -0.0376 C.3       1 <0>         0.2075
      8 H1          4.5104   -0.0454    0.2962 H         1 <0>         0.1093
      9 C8          4.0032   -1.2014   -1.4298 C.2       1 <0>        -0.1087
     10 C9          4.0985   -2.5185   -1.4273 C.2       1 <0>        -0.1061
     11 C10         3.8804   -3.0445   -0.0332 C.3       1 <0>         0.1281
     12 N1          3.6374   -1.8835    0.8395 N.am      1 <0>        -0.5911
     13 C11         3.3967   -1.8953    2.1655 C.2       1 <0>         0.5308
     14 O1          3.2127   -0.8530    2.7577 O.2       1 <0>        -0.5041
     15 C12         3.3563   -3.2036    2.9124 C.3       1 <0>         0.0478
     16 H2          4.1449   -3.8582    2.5415 H         1 <0>         0.1685
     17 C13         1.9965   -3.8713    2.6984 C.3       1 <0>        -0.1915
     18 C14         1.0572   -3.9632    3.9027 C.3       1 <0>        -0.1749
     19 C15         1.7564   -5.2198    3.3801 C.3       1 <0>        -0.1575
     20 N2          3.5598   -2.9555    4.3460 N.4       1 <0>        -0.6237
     21 C16         4.3769   -3.3520   -2.6155 C.ar      1 <0>        -0.0527
     22 C17         5.6367   -3.9260   -2.7891 C.ar      1 <0>        -0.1099
     23 C18         5.8905   -4.7041   -3.9021 C.ar      1 <0>         0.0965
     24 C19         4.8970   -4.9150   -4.8451 C.ar      1 <0>        -0.1118
     25 C20         3.6466   -4.3491   -4.6790 C.ar      1 <0>        -0.1193
     26 C21         3.3779   -3.5733   -3.5669 C.ar      1 <0>         0.1078
     27 F1          2.1538   -3.0255   -3.4032 F         1 <0>        -0.1262
     28 F2          7.1100   -5.2602   -4.0719 F         1 <0>        -0.1279
     29 H3         -0.9591    1.9053    0.0259 H         1 <0>         0.1268
     30 H4          1.1563    3.1654    0.0076 H         1 <0>         0.1285
     31 H5          3.3051    1.9634   -0.0196 H         1 <0>         0.1250
     32 H6          1.2231   -1.7588   -0.0176 H         1 <0>         0.1104
     33 H7         -0.9258   -0.5567    0.0082 H         1 <0>         0.1236
     34 H8          4.1170   -0.5726   -2.3004 H         1 <0>         0.1618
     35 H9          3.0157   -3.7080   -0.0183 H         1 <0>         0.0934
     36 H10         4.7676   -3.5806    0.3039 H         1 <0>         0.0952
     37 H11         1.5452   -3.7153    1.7185 H         1 <0>         0.1474
     38 H12         1.4081   -3.5481    4.8474 H         1 <0>         0.0948
     39 H13        -0.0123   -3.8676    3.7152 H         1 <0>         0.1263
     40 H14         1.1469   -5.9508    2.8489 H         1 <0>         0.1244
     41 H15         2.5673   -5.6313    3.9811 H         1 <0>         0.1074
     42 H16         2.8298   -2.3495    4.6893 H         1 <0>         0.4435
     43 H17         3.5327   -3.8314    4.8460 H         1 <0>         0.4417
     44 H18         6.4119   -3.7621   -2.0552 H         1 <0>         0.1478
     45 H19         5.1006   -5.5238   -5.7136 H         1 <0>         0.1528
     46 H20         2.8766   -4.5173   -5.4175 H         1 <0>         0.1536
     47 H21         4.4566   -2.5152    4.4871 H         1 <0>         0.4428
@<TRIPOS>BOND
     1    1    6 ar
     2    1    2 ar
     3    1   29 1
     4    2    3 ar
     5    2   30 1
     6    3    4 ar
     7    3   31 1
     8    4    5 ar
     9    4    7 1
    10    5    6 ar
    11    5   32 1
    12    6   33 1
    13    7    8 1
    14    7   12 1
    15    7    9 1
    16    9   10 2
    17    9   34 1
    18   10   11 1
    19   10   21 1
    20   11   12 1
    21   11   35 1
    22   11   36 1
    23   12   13 am
    24   13   14 2
    25   13   15 1
    26   15   16 1
    27   15   17 1
    28   15   20 1
    29   17   19 1
    30   17   18 1
    31   17   37 1
    32   18   19 1
    33   18   38 1
    34   18   39 1
    35   19   40 1
    36   19   41 1
    37   20   42 1
    38   20   43 1
    39   20   47 1
    40   21   26 ar
    41   21   22 ar
    42   22   23 ar
    43   22   44 1
    44   23   24 ar
    45   23   28 1
    46   24   25 ar
    47   24   45 1
    48   25   26 ar
    49   25   46 1
    50   26   27 1
@<TRIPOS>MOLECULE
CHEMBL1213955
   39    41     0     0     0
SMALL
USER_CHARGES

@<TRIPOS>ATOM
      1 C1         -0.0187    1.5258    0.0104 C.3       1 <0>        -0.1549
      2 C2          0.0021   -0.0041    0.0020 C.3       1 <0>        -0.0526
      3 C3          0.7327   -0.5002   -1.2478 C.3       1 <0>        -0.0912
      4 C4          2.1604   -0.0133   -1.2262 C.2       1 <0>         0.2170
      5 C5          2.7992    0.1812   -0.0498 C.2       1 <0>        -0.2774
      6 C6          4.2339    0.6661   -0.0864 C.3       1 <0>         0.2188
      7 H1          4.8499   -0.0663    0.4355 H         1 <0>         0.1014
      8 N1          4.8259    0.8931   -1.4159 N.pl3     1 <0>        -0.6430
      9 C7          4.0627    0.6579   -2.5015 C.2       1 <0>         0.5565
     10 S1          4.7343    0.9184   -4.0546 S.2       1 <0>        -0.5913
     11 N2          2.7995    0.2291   -2.4090 N.pl3     1 <0>        -0.6010
     12 C8          4.3070    1.9607    0.6815 C.ar      1 <0>        -0.0976
     13 C9          3.9032    3.1414    0.0853 C.ar      1 <0>        -0.1098
     14 C10         3.9690    4.3306    0.7870 C.ar      1 <0>        -0.1054
     15 C11         4.4389    4.3424    2.0863 C.ar      1 <0>        -0.1346
     16 C12         4.8444    3.1595    2.6866 C.ar      1 <0>         0.1043
     17 C13         4.7717    1.9663    1.9822 C.ar      1 <0>        -0.0956
     18 O1          5.3070    3.1685    3.9644 O.3       1 <0>        -0.4977
     19 C14         2.1744   -0.0485    1.1808 C.2       1 <0>         0.4147
     20 O2          2.7933    0.1290    2.2112 O.2       1 <0>        -0.4559
     21 C15         0.7427   -0.5144    1.2425 C.3       1 <0>        -0.1562
     22 C16        -1.4323   -0.5363    0.0061 C.3       1 <0>        -0.1430
     23 H2          1.0039    1.9031    0.0027 H         1 <0>         0.0580
     24 H3         -0.5459    1.8868   -0.8726 H         1 <0>         0.0640
     25 H4         -0.5289    1.8773    0.9072 H         1 <0>         0.0662
     26 H5          0.7212   -1.5900   -1.2663 H         1 <0>         0.1117
     27 H6          0.2320   -0.1172   -2.1370 H         1 <0>         0.1005
     28 H7          5.7402    1.2038   -1.5076 H         1 <0>         0.4482
     29 H8          2.3074    0.0806   -3.2316 H         1 <0>         0.4416
     30 H9          3.5363    3.1343   -0.9304 H         1 <0>         0.1145
     31 H10         3.6531    5.2513    0.3192 H         1 <0>         0.1286
     32 H11         4.4907    5.2718    2.6339 H         1 <0>         0.1303
     33 H12         5.0824    1.0433    2.4490 H         1 <0>         0.1342
     34 H13         4.6195    3.0408    4.6325 H         1 <0>         0.3928
     35 H14         0.2684   -0.1174    2.1400 H         1 <0>         0.1033
     36 H15         0.7129   -1.6038    1.2631 H         1 <0>         0.1061
     37 H16        -1.9560   -0.1762   -0.8795 H         1 <0>         0.0645
     38 H17        -1.4155   -1.6262    0.0001 H         1 <0>         0.0632
     39 H18        -1.9474   -0.1859    0.9005 H         1 <0>         0.0670
@<TRIPOS>BOND
     1    1    2 1
     2    1   23 1
     3    1   24 1
     4    1   25 1
     5    2   21 1
     6    2    3 1
     7    2   22 1
     8    3    4 1
     9    3   26 1
    10    3   27 1
    11    4   11 1
    12    4    5 2
    13    5    6 1
    14    5   19 1
    15    6    7 1
    16    6    8 1
    17    6   12 1
    18    8    9 1
    19    8   28 1
    20    9   10 2
    21    9   11 1
    22   11   29 1
    23   12   17 ar
    24   12   13 ar
    25   13   14 ar
    26   13   30 1
    27   14   15 ar
    28   14   31 1
    29   15   16 ar
    30   15   32 1
    31   16   17 ar
    32   16   18 1
    33   17   33 1
    34   18   34 1
    35   19   20 2
    36   19   21 1
    37   21   35 1
    38   21   36 1
    39   22   37 1
    40   22   38 1
    41   22   39 1
@<TRIPOS>MOLECULE
CHEMBL228369
   46    48     0     0     0
SMALL
USER_CHARGES

@<TRIPOS>ATOM
      1 C1          0.0159    1.5713    0.1118 C.3       1 <0>        -0.1690
      2 C2         -0.0138    0.0481   -0.0290 C.3       1 <0>         0.1092
      3 N1         -1.4011   -0.4200    0.0203 N.am      1 <0>        -0.6068
      4 C3         -2.1795   -0.5358   -1.2153 C.3       1 <0>         0.1064
      5 C4         -1.9058   -1.8937   -1.8651 C.3       1 <0>        -0.1758
      6 C5         -1.9613   -0.7440    1.2026 C.2       1 <0>         0.5810
      7 O1         -1.3429   -0.5715    2.2366 O.2       1 <0>        -0.5290
      8 C6         -3.3154   -1.3041    1.2430 C.2       1 <0>        -0.2215
      9 C7         -3.5430   -2.7380    1.1965 C.2       1 <0>        -0.0599
     10 C8         -4.8452   -3.0925    1.2428 C.2       1 <0>        -0.2220
     11 S1         -5.7241   -1.5609    1.3453 S.3       1 <0>         0.2869
     12 C9         -4.4324   -0.4878    1.3331 C.2       1 <0>         0.0325
     13 N2         -4.4737    0.8953    1.3960 N.am      1 <0>        -0.6162
     14 C10        -5.6590    1.5310    1.4815 C.2       1 <0>         0.6049
     15 O2         -6.6933    0.8897    1.5034 O.2       1 <0>        -0.4868
     16 C11        -5.7027    2.9940    1.5481 C.2       1 <0>        -0.2719
     17 C12        -6.8034    3.8324    1.6440 C.2       1 <0>        -0.0486
     18 C13        -6.5268    5.1777    1.6882 C.2       1 <0>        -0.1871
     19 C14        -5.2351    5.5871    1.6368 C.2       1 <0>        -0.2082
     20 S2         -4.3544    4.1602    1.5347 S.3       1 <0>         0.2134
     21 C15        -5.4008   -4.4828    1.2116 C.3       1 <0>        -0.0345
     22 C16        -4.2918   -5.4347    0.7396 C.3       1 <0>        -0.1138
     23 C17        -3.0142   -5.1378    1.5299 C.3       1 <0>        -0.1193
     24 C18        -2.4416   -3.7838    1.1046 C.3       1 <0>        -0.0619
     25 H1          1.0481    1.9196    0.0750 H         1 <0>         0.0685
     26 H2         -0.5491    2.0227   -0.7038 H         1 <0>         0.0557
     27 H3         -0.4302    1.8569    1.0644 H         1 <0>         0.0586
     28 H4          0.4323   -0.2375   -0.9817 H         1 <0>         0.0786
     29 H5          0.5512   -0.4032    0.7865 H         1 <0>         0.0837
     30 H6         -3.2415   -0.4507   -0.9851 H         1 <0>         0.0776
     31 H7         -1.8917    0.2602   -1.9021 H         1 <0>         0.0778
     32 H8         -0.8320   -2.0209   -2.0025 H         1 <0>         0.0591
     33 H9         -2.2863   -2.6874   -1.2222 H         1 <0>         0.0658
     34 H10        -2.4040   -1.9402   -2.8334 H         1 <0>         0.0676
     35 H11        -3.6494    1.4064    1.3786 H         1 <0>         0.4166
     36 H12        -7.8136    3.4521    1.6813 H         1 <0>         0.1548
     37 H13        -7.3272    5.8990    1.7625 H         1 <0>         0.1446
     38 H14        -4.8583    6.5990    1.6609 H         1 <0>         0.1939
     39 H15        -5.7304   -4.7692    2.2103 H         1 <0>         0.0824
     40 H16        -6.2419   -4.5269    0.5198 H         1 <0>         0.0812
     41 H17        -4.5975   -6.4663    0.9140 H         1 <0>         0.0736
     42 H18        -4.1072   -5.2815   -0.3237 H         1 <0>         0.0676
     43 H19        -3.2444   -5.1151    2.5951 H         1 <0>         0.0673
     44 H20        -2.2789   -5.9188    1.3363 H         1 <0>         0.0697
     45 H21        -2.0806   -3.8455    0.0780 H         1 <0>         0.0792
     46 H22        -1.6208   -3.5095    1.7673 H         1 <0>         0.0744
@<TRIPOS>BOND
     1    1    2 1
     2    1   25 1
     3    1   26 1
     4    1   27 1
     5    2    3 1
     6    2   28 1
     7    2   29 1
     8    3    4 1
     9    3    6 am
    10    4    5 1
    11    4   30 1
    12    4   31 1
    13    5   32 1
    14    5   33 1
    15    5   34 1
    16    6    7 2
    17    6    8 1
    18    8   12 2
    19    8    9 1
    20    9   24 1
    21    9   10 2
    22   10   11 1
    23   10   21 1
    24   11   12 1
    25   12   13 1
    26   13   14 am
    27   13   35 1
    28   14   15 2
    29   14   16 1
    30   16   20 1
    31   16   17 2
    32   17   18 1
    33   17   36 1
    34   18   19 2
    35   18   37 1
    36   19   20 1
    37   19   38 1
    38   21   22 1
    39   21   39 1
    40   21   40 1
    41   22   23 1
    42   22   41 1
    43   22   42 1
    44   23   24 1
    45   23   43 1
    46   23   44 1
    47   24   45 1
    48   24   46 1
@<TRIPOS>MOLECULE
CHEMBL243669
   32    33     0     0     0
SMALL
USER_CHARGES

@<TRIPOS>ATOM
      1 C1         -0.1133    1.4948   -0.0560 C.ar      1 <0>        -0.1100
      2 C2          1.0567    2.2253   -0.1023 C.ar      1 <0>        -0.0645
      3 C3          2.2721    1.5809   -0.2468 C.ar      1 <0>        -0.1806
      4 C4          2.3224    0.2021   -0.3457 C.ar      1 <0>        -0.0642
      5 C5          1.1587   -0.5385   -0.3007 C.ar      1 <0>        -0.1109
      6 C6         -0.0686    0.1054   -0.1547 C.ar      1 <0>        -0.0121
      7 C7         -1.3229   -0.6852   -0.1051 C.ar      1 <0>        -0.0434
      8 C8         -2.5500   -0.0390    0.0346 C.ar      1 <0>        -0.0716
      9 C9         -3.7153   -0.7749    0.0801 C.ar      1 <0>        -0.1480
     10 C10        -3.6680   -2.1603   -0.0132 C.ar      1 <0>         0.1437
     11 C11        -2.4442   -2.8087   -0.1528 C.ar      1 <0>         0.0851
     12 C12        -1.2762   -2.0750   -0.2040 C.ar      1 <0>        -0.1080
     13 F1         -2.4001   -4.1559   -0.2429 F         1 <0>        -0.1278
     14 N1         -4.8501   -2.9037    0.0336 N.pl3     1 <0>        -1.0554
     15 S1         -6.1171   -2.3863    0.9660 S.o2      1 <0>         2.7960
     16 O1         -7.1439   -3.3594    0.8320 O.2       1 <0>        -0.9666
     17 O2         -5.5718   -2.0230    2.2269 O.2       1 <0>        -0.9605
     18 N2         -6.6929   -0.9932    0.2803 N.pl3     1 <0>        -1.2606
     19 C13         3.5463    2.3840   -0.2972 C.3       1 <0>         0.5075
     20 F2          4.0490    2.5429    0.9987 F         1 <0>        -0.1750
     21 F3          4.4891    1.7140   -1.0842 F         1 <0>        -0.1759
     22 F4          3.2837    3.6408   -0.8528 F         1 <0>        -0.1760
     23 H1         -1.0614    1.9987    0.0609 H         1 <0>         0.1410
     24 H2          1.0233    3.3021   -0.0259 H         1 <0>         0.1411
     25 H3          3.2741   -0.2959   -0.4588 H         1 <0>         0.1408
     26 H4          1.1990   -1.6149   -0.3787 H         1 <0>         0.1395
     27 H5         -2.5881    1.0379    0.1076 H         1 <0>         0.1459
     28 H6         -4.6659   -0.2738    0.1888 H         1 <0>         0.1444
     29 H7         -0.3268   -2.5773   -0.3169 H         1 <0>         0.1495
     30 H8         -4.9286   -3.7228   -0.4800 H         1 <0>         0.4342
     31 H9         -6.2791   -0.6413   -0.5234 H         1 <0>         0.4166
     32 H10        -7.4439   -0.5292    0.6822 H         1 <0>         0.4258
@<TRIPOS>BOND
     1    1    6 ar
     2    1    2 ar
     3    1   23 1
     4    2    3 ar
     5    2   24 1
     6    3    4 ar
     7    3   19 1
     8    4    5 ar
     9    4   25 1
    10    5    6 ar
    11    5   26 1
    12    6    7 1
    13    7   12 ar
    14    7    8 ar
    15    8    9 ar
    16    8   27 1
    17    9   10 ar
    18    9   28 1
    19   10   11 ar
    20   10   14 1
    21   11   12 ar
    22   11   13 1
    23   12   29 1
    24   14   15 1
    25   14   30 1
    26   15   16 2
    27   15   17 2
    28   15   18 1
    29   18   31 1
    30   18   32 1
    31   19   20 1
    32   19   21 1
    33   19   22 1
@<TRIPOS>MOLECULE
CHEMBL243669__1
   31    32     0     0     0
SMALL
USER_CHARGES

@<TRIPOS>ATOM
      1 C1         -0.0168    1.3894    0.0097 C.ar      1 <0>        -0.1362
      2 C2          1.1704    2.0931    0.0021 C.ar      1 <0>        -0.0609
      3 C3          2.3775    1.4178   -0.0135 C.ar      1 <0>        -0.2172
      4 C4          2.4023    0.0348   -0.0216 C.ar      1 <0>        -0.0599
      5 C5          1.2212   -0.6792   -0.0142 C.ar      1 <0>        -0.1382
      6 C6          0.0021   -0.0041    0.0020 C.ar      1 <0>         0.0452
      7 C7         -1.2707   -0.7659    0.0106 C.ar      1 <0>        -0.1674
      8 C8         -2.4892   -0.0889    0.0205 C.ar      1 <0>        -0.0552
      9 C9         -3.6718   -0.7982    0.0279 C.ar      1 <0>        -0.1684
     10 C10        -3.6505   -2.1874    0.0256 C.ar      1 <0>         0.2843
     11 C11        -2.4355   -2.8664    0.0157 C.ar      1 <0>        -0.0670
     12 C12        -1.2498   -2.1599    0.0029 C.ar      1 <0>        -0.0665
     13 F1         -2.4168   -4.2173    0.0139 F         1 <0>        -0.1400
     14 N1         -4.8501   -2.9037    0.0336 N.2       1 <0>        -1.1018
     15 S1         -4.8259   -4.5595    0.0309 S.o2      1 <0>         2.7294
     16 O1         -4.2787   -4.9555   -1.2193 O.2       1 <0>        -1.0490
     17 O2         -4.2597   -4.9595    1.2713 O.2       1 <0>        -1.0489
     18 N2         -6.4005   -5.0722    0.0421 N.pl3     1 <0>        -1.2576
     19 C13         3.6706    2.1918   -0.0222 C.3       1 <0>         0.5107
     20 F2          4.0838    2.4242    1.2940 F         1 <0>        -0.1811
     21 F3          4.6507    1.4547   -0.6954 F         1 <0>        -0.1811
     22 F4          3.4776    3.4149   -0.6732 F         1 <0>        -0.1812
     23 H1         -0.9587    1.9176    0.0260 H         1 <0>         0.1358
     24 H2          1.1570    3.1730    0.0081 H         1 <0>         0.1303
     25 H3          3.3476   -0.4873   -0.0342 H         1 <0>         0.1300
     26 H4          1.2416   -1.7589   -0.0212 H         1 <0>         0.1339
     27 H5         -2.5070    0.9909    0.0227 H         1 <0>         0.1190
     28 H6         -4.6156   -0.2732    0.0360 H         1 <0>         0.1272
     29 H7         -0.3069   -2.6863   -0.0093 H         1 <0>         0.1217
     30 H8         -7.1217   -4.4236    0.0486 H         1 <0>         0.4075
     31 H9         -6.6015   -6.0212    0.0421 H         1 <0>         0.4025
@<TRIPOS>BOND
     1    1    6 ar
     2    1    2 ar
     3    1   23 1
     4    2    3 ar
     5    2   24 1
     6    3    4 ar
     7    3   19 1
     8    4    5 ar
     9    4   25 1
    10    5    6 ar
    11    5   26 1
    12    6    7 1
    13    7   12 ar
    14    7    8 ar
    15    8    9 ar
    16    8   27 1
    17    9   10 ar
    18    9   28 1
    19   10   11 ar
    20   10   14 1
    21   11   12 ar
    22   11   13 1
    23   12   29 1
    24   14   15 1
    25   15   16 2
    26   15   17 2
    27   15   18 1
    28   18   30 1
    29   18   31 1
    30   19   20 1
    31   19   21 1
    32   19   22 1
@<TRIPOS>MOLECULE
CHEMBL243668
   31    32     0     0     0
SMALL
USER_CHARGES

@<TRIPOS>ATOM
      1 C1         -0.0339    1.4084    0.0676 C.ar      1 <0>        -0.1118
      2 C2          1.1506    2.1168    0.0720 C.ar      1 <0>        -0.0644
      3 C3          2.3605    1.4464    0.0595 C.ar      1 <0>        -0.1841
      4 C4          2.3907    0.0636    0.0430 C.ar      1 <0>        -0.0645
      5 C5          1.2125   -0.6550    0.0389 C.ar      1 <0>        -0.1138
      6 C6         -0.0094    0.0151    0.0510 C.ar      1 <0>        -0.0070
      7 C7         -1.2792   -0.7518    0.0467 C.ar      1 <0>        -0.0509
      8 C8         -2.5004   -0.0797    0.0535 C.ar      1 <0>        -0.0871
      9 C9         -3.6802   -0.7937    0.0496 C.ar      1 <0>        -0.1042
     10 C10        -3.6533   -2.1825    0.0388 C.ar      1 <0>         0.1486
     11 C11        -2.4361   -2.8566    0.0320 C.ar      1 <0>         0.0666
     12 C12        -1.2528   -2.1453    0.0301 C.ar      1 <0>        -0.1148
     13 F1         -2.4122   -4.2074    0.0215 F         1 <0>        -0.1354
     14 N1         -4.8524   -2.9047    0.0352 N.am      1 <0>        -0.6803
     15 C13        -5.9771   -2.3412   -0.4485 C.2       1 <0>         0.7084
     16 O1         -5.9305   -1.2461   -0.9749 O.2       1 <0>        -0.5703
     17 N2         -7.1533   -2.9915   -0.3488 N.am      1 <0>        -0.8566
     18 C14         3.6505    2.2255    0.0633 C.3       1 <0>         0.5079
     19 F2          4.0549    2.4514    1.3834 F         1 <0>        -0.1758
     20 F3          4.6375    1.4965   -0.6085 F         1 <0>        -0.1764
     21 F4          3.4565    3.4519   -0.5813 F         1 <0>        -0.1763
     22 H1         -0.9779    1.9328    0.0815 H         1 <0>         0.1406
     23 H2          1.1328    3.1966    0.0849 H         1 <0>         0.1400
     24 H3          3.3382   -0.4547    0.0329 H         1 <0>         0.1395
     25 H4          1.2372   -1.7347    0.0257 H         1 <0>         0.1385
     26 H5         -2.5226    1.0000    0.0623 H         1 <0>         0.1394
     27 H6         -4.6261   -0.2726    0.0552 H         1 <0>         0.1626
     28 H7         -0.3078   -2.6680    0.0199 H         1 <0>         0.1451
     29 H8         -4.8738   -3.8108    0.3810 H         1 <0>         0.4128
     30 H9         -7.1904   -3.8651    0.0712 H         1 <0>         0.4013
     31 H10        -7.9628   -2.5860   -0.6969 H         1 <0>         0.4223
@<TRIPOS>BOND
     1    1    6 ar
     2    1    2 ar
     3    1   22 1
     4    2    3 ar
     5    2   23 1
     6    3    4 ar
     7    3   18 1
     8    4    5 ar
     9    4   24 1
    10    5    6 ar
    11    5   25 1
    12    6    7 1
    13    7   12 ar
    14    7    8 ar
    15    8    9 ar
    16    8   26 1
    17    9   10 ar
    18    9   27 1
    19   10   11 ar
    20   10   14 1
    21   11   12 ar
    22   11   13 1
    23   12   28 1
    24   14   15 am
    25   14   29 1
    26   15   16 2
    27   15   17 am
    28   17   30 1
    29   17   31 1
    30   18   19 1
    31   18   20 1
    32   18   21 1
@<TRIPOS>MOLECULE
CHEMBL1170621
   34    36     0     0     0
SMALL
USER_CHARGES

@<TRIPOS>ATOM
      1 C1         -0.0187    1.5258    0.0104 C.3       1 <0>        -0.1399
      2 C2          0.0021   -0.0041    0.0020 C.3       1 <0>        -0.0243
      3 C3          0.7421   -0.5109    1.2415 C.3       1 <0>        -0.1398
      4 C4         -1.4333   -0.5336    0.0129 C.3       1 <0>        -0.1454
      5 C5          0.7074   -0.4901   -1.2379 C.ar      1 <0>        -0.0999
      6 C6          0.0315   -1.2866   -2.1496 C.ar      1 <0>        -0.0831
      7 C7          0.6627   -1.7384   -3.2882 C.ar      1 <0>        -0.1416
      8 C8          1.9896   -1.3964   -3.5317 C.ar      1 <0>         0.1365
      9 C9          2.6719   -0.5906   -2.6083 C.ar      1 <0>        -0.1016
     10 C10         2.0201   -0.1365   -1.4640 C.ar      1 <0>        -0.0564
     11 C11         4.0352   -0.4082   -3.1395 C.ar      1 <0>        -0.1057
     12 C12         5.1579    0.2788   -2.6835 C.ar      1 <0>        -0.0615
     13 C13         6.3196    0.2608   -3.4247 C.ar      1 <0>        -0.1513
     14 C14         6.3739   -0.4376   -4.6213 C.ar      1 <0>        -0.0833
     15 C15         5.2706   -1.1211   -5.0844 C.ar      1 <0>        -0.1449
     16 C16         4.0886   -1.1156   -4.3496 C.ar      1 <0>         0.1406
     17 N1          2.8542   -1.7008   -4.5678 N.pl3     1 <0>        -0.6183
     18 H1          2.6275   -2.2466   -5.3369 H         1 <0>         0.4166
     19 H2          1.0039    1.9031    0.0027 H         1 <0>         0.0563
     20 H3         -0.5459    1.8868   -0.8726 H         1 <0>         0.0564
     21 H4         -0.5289    1.8773    0.9072 H         1 <0>         0.0584
     22 H5          0.2319   -0.1594    2.1383 H         1 <0>         0.0584
     23 H6          0.7568   -1.6008    1.2356 H         1 <0>         0.0564
     24 H7          1.7647   -0.1336    1.2338 H         1 <0>         0.0563
     25 H8         -1.9605   -0.1726   -0.8702 H         1 <0>         0.0588
     26 H9         -1.4185   -1.6235    0.0069 H         1 <0>         0.0588
     27 H10        -1.9435   -0.1821    0.9097 H         1 <0>         0.0589
     28 H11        -0.9982   -1.5554   -1.9657 H         1 <0>         0.1333
     29 H12         0.1274   -2.3586   -3.9920 H         1 <0>         0.1234
     30 H13         2.5430    0.4874   -0.7543 H         1 <0>         0.1235
     31 H14         5.1180    0.8241   -1.7522 H         1 <0>         0.1245
     32 H15         7.1908    0.7930   -3.0724 H         1 <0>         0.1270
     33 H16         7.2886   -0.4456   -5.1955 H         1 <0>         0.1291
     34 H17         5.3232   -1.6617   -6.0179 H         1 <0>         0.1235
@<TRIPOS>BOND
     1    1    2 1
     2    1   19 1
     3    1   20 1
     4    1   21 1
     5    2    3 1
     6    2    4 1
     7    2    5 1
     8    3   22 1
     9    3   23 1
    10    3   24 1
    11    4   25 1
    12    4   26 1
    13    4   27 1
    14    5   10 ar
    15    5    6 ar
    16    6    7 ar
    17    6   28 1
    18    7    8 ar
    19    7   29 1
    20    8   17 1
    21    8    9 ar
    22    9   10 ar
    23    9   11 1
    24   10   30 1
    25   11   16 ar
    26   11   12 ar
    27   12   13 ar
    28   12   31 1
    29   13   14 ar
    30   13   32 1
    31   14   15 ar
    32   14   33 1
    33   15   16 ar
    34   15   34 1
    35   16   17 1
    36   17   18 1
@<TRIPOS>MOLECULE
CHEMBL594458
   63    67     0     0     0
SMALL
USER_CHARGES

@<TRIPOS>ATOM
      1 C1         -0.0028    1.5225    0.0706 C.3       1 <0>        -0.1136
      2 C2          0.0163    0.0157    0.0495 C.ar      1 <0>        -0.1037
      3 C3          0.0242   -0.6558   -1.1655 C.ar      1 <0>        -0.0912
      4 C4          0.0422   -2.0324   -1.2064 C.ar      1 <0>        -0.1233
      5 C5          0.0523   -2.7596   -0.0207 C.ar      1 <0>         0.0989
      6 C6          0.0442   -2.0745    1.2095 C.ar      1 <0>        -0.0937
      7 C7          0.0315   -0.6780    1.2262 C.ar      1 <0>        -0.0750
      8 C8          0.0570   -3.1068    2.2421 C.2       1 <0>        -0.1627
      9 C9          0.0735   -4.2985    1.6147 C.2       1 <0>         0.0678
     10 N1          0.0693   -4.1081    0.2627 N.pl3     1 <0>        -0.5779
     11 H1          0.0768   -4.8166   -0.3998 H         1 <0>         0.4170
     12 C10         0.0983   -5.6240    2.3442 C.3       1 <0>         0.2576
     13 N2         -0.1804   -5.3506    3.7645 N.am      1 <0>        -0.5897
     14 C11         0.5052   -4.2185    4.4058 C.3       1 <0>         0.0913
     15 C12         0.0487   -2.9159    3.7366 C.3       1 <0>        -0.0607
     16 C13        -1.0428   -6.1188    4.4593 C.2       1 <0>         0.5296
     17 O1         -1.6003   -7.0485    3.9155 O.2       1 <0>        -0.5285
     18 C14        -1.3143   -5.8224    5.9117 C.3       1 <0>        -0.1731
     19 C15        -2.3219   -6.8352    6.4591 C.3       1 <0>         0.0060
     20 N3         -2.5866   -6.5464    7.8749 N.4       1 <0>        -0.3828
     21 C16        -1.3581   -6.7493    8.6521 C.3       1 <0>        -0.0144
     22 C17        -1.6067   -6.3720   10.1141 C.3       1 <0>        -0.1450
     23 C18        -2.7227   -7.2545   10.6806 C.3       1 <0>        -0.1400
     24 C19        -3.9771   -7.0910    9.8177 C.3       1 <0>        -0.1459
     25 C20        -3.6407   -7.4417    8.3667 C.3       1 <0>        -0.0060
     26 C21         1.4565   -6.2615    2.2022 C.ar      1 <0>        -0.0945
     27 C22         1.5680   -7.5457    1.7014 C.ar      1 <0>        -0.1093
     28 C23         2.8124   -8.1332    1.5699 C.ar      1 <0>        -0.0994
     29 C24         3.9482   -7.4385    1.9391 C.ar      1 <0>        -0.1330
     30 C25         3.8390   -6.1503    2.4417 C.ar      1 <0>         0.1082
     31 C26         2.5893   -5.5605    2.5670 C.ar      1 <0>        -0.1275
     32 O2          4.9547   -5.4648    2.8056 O.3       1 <0>        -0.4982
     33 H2          1.0201    1.8989    0.0701 H         1 <0>         0.0703
     34 H3         -0.5262    1.8915   -0.8115 H         1 <0>         0.0673
     35 H4         -0.5163    1.8668    0.9683 H         1 <0>         0.0651
     36 H5          0.0158   -0.0934   -2.0875 H         1 <0>         0.1292
     37 H6          0.0479   -2.5459   -2.1565 H         1 <0>         0.1232
     38 H7          0.0301   -0.1479    2.1671 H         1 <0>         0.1211
     39 H8         -0.6666   -6.2853    1.9371 H         1 <0>         0.1213
     40 H9          0.2528   -4.1920    5.4658 H         1 <0>         0.0905
     41 H10         1.5830   -4.3307    4.2884 H         1 <0>         0.0922
     42 H11         0.7306   -2.1090    4.0054 H         1 <0>         0.0913
     43 H12        -0.9601   -2.6693    4.0677 H         1 <0>         0.0763
     44 H13        -0.3849   -5.8928    6.4768 H         1 <0>         0.1188
     45 H14        -1.7222   -4.8161    6.0071 H         1 <0>         0.1203
     46 H15        -3.2514   -6.7649    5.8940 H         1 <0>         0.1409
     47 H16        -1.9140   -7.8415    6.3637 H         1 <0>         0.1391
     48 H17        -1.0601   -7.7961    8.5932 H         1 <0>         0.1303
     49 H18        -0.5639   -6.1230    8.2457 H         1 <0>         0.1291
     50 H19        -0.6939   -6.5250   10.6898 H         1 <0>         0.1123
     51 H20        -1.9045   -5.3252   10.1742 H         1 <0>         0.0880
     52 H21        -2.4048   -8.2970   10.6680 H         1 <0>         0.0821
     53 H22        -2.9425   -6.9517   11.7044 H         1 <0>         0.0945
     54 H23        -4.7587   -7.7580   10.1815 H         1 <0>         0.1129
     55 H24        -4.3242   -6.0591    9.8716 H         1 <0>         0.0879
     56 H25        -4.5317   -7.3265    7.7495 H         1 <0>         0.1316
     57 H26        -3.2941   -8.4738    8.3138 H         1 <0>         0.1297
     58 H27         0.6813   -8.0906    1.4128 H         1 <0>         0.1287
     59 H28         2.8968   -9.1363    1.1785 H         1 <0>         0.1335
     60 H29         4.9201   -7.8982    1.8369 H         1 <0>         0.1338
     61 H30         2.5021   -4.5559    2.9536 H         1 <0>         0.1332
     62 H31         5.3448   -4.9414    2.0923 H         1 <0>         0.3962
     63 H32        -2.8886   -5.5884    7.9709 H         1 <0>         0.4218
@<TRIPOS>BOND
     1    1    2 1
     2    1   33 1
     3    1   34 1
     4    1   35 1
     5    2    7 ar
     6    2    3 ar
     7    3    4 ar
     8    3   36 1
     9    4    5 ar
    10    4   37 1
    11    5   10 1
    12    5    6 ar
    13    6    7 ar
    14    6    8 1
    15    7   38 1
    16    8   15 1
    17    8    9 2
    18    9   10 1
    19    9   12 1
    20   10   11 1
    21   12   13 1
    22   12   26 1
    23   12   39 1
    24   13   14 1
    25   13   16 am
    26   14   15 1
    27   14   40 1
    28   14   41 1
    29   15   42 1
    30   15   43 1
    31   16   17 2
    32   16   18 1
    33   18   19 1
    34   18   44 1
    35   18   45 1
    36   19   20 1
    37   19   46 1
    38   19   47 1
    39   20   25 1
    40   20   21 1
    41   20   63 1
    42   21   22 1
    43   21   48 1
    44   21   49 1
    45   22   23 1
    46   22   50 1
    47   22   51 1
    48   23   24 1
    49   23   52 1
    50   23   53 1
    51   24   25 1
    52   24   54 1
    53   24   55 1
    54   25   56 1
    55   25   57 1
    56   26   31 ar
    57   26   27 ar
    58   27   28 ar
    59   27   58 1
    60   28   29 ar
    61   28   59 1
    62   29   30 ar
    63   29   60 1
    64   30   31 ar
    65   30   32 1
    66   31   61 1
    67   32   62 1
@<TRIPOS>MOLECULE
CHEMBL594458__1
   63    67     0     0     0
SMALL
USER_CHARGES

@<TRIPOS>ATOM
      1 C1         -0.2717    1.7796    1.1994 C.3       1 <0>        -0.1136
      2 C2         -0.2386    0.2941    0.9478 C.ar      1 <0>        -0.1037
      3 C3         -0.3275   -0.1862   -0.3517 C.ar      1 <0>        -0.0912
      4 C4         -0.2996   -1.5402   -0.6028 C.ar      1 <0>        -0.1232
      5 C5         -0.1806   -2.4374    0.4534 C.ar      1 <0>         0.0991
      6 C6         -0.0901   -1.9459    1.7699 C.ar      1 <0>        -0.0935
      7 C7         -0.1157   -0.5685    1.9999 C.ar      1 <0>        -0.0751
      8 C8          0.0232   -3.1214    2.6286 C.2       1 <0>        -0.1630
      9 C9         -0.0055   -4.2043    1.8283 C.2       1 <0>         0.0689
     10 N1         -0.1252   -3.8124    0.5259 N.pl3     1 <0>        -0.5779
     11 H1         -0.1656   -4.4125   -0.2351 H         1 <0>         0.4168
     12 C10         0.0799   -5.6243    2.3443 C.3       1 <0>         0.2577
     13 N2          0.4709   -5.5549    3.7628 N.am      1 <0>        -0.5898
     14 C11        -0.1961   -4.5667    4.6239 C.3       1 <0>         0.0914
     15 C12         0.1543   -3.1576    4.1292 C.3       1 <0>        -0.0603
     16 C13         1.4163   -6.3771    4.2594 C.2       1 <0>         0.5291
     17 O1          1.9566   -7.1868    3.5360 O.2       1 <0>        -0.5276
     18 C14         1.8022   -6.2902    5.7136 C.3       1 <0>        -0.1726
     19 C15         2.8879   -7.3249    6.0159 C.3       1 <0>         0.0056
     20 N3          3.2640   -7.2403    7.4334 N.4       1 <0>        -0.3828
     21 C16         3.8770   -5.9331    7.6982 C.3       1 <0>        -0.0144
     22 C17         4.1968   -5.8082    9.1894 C.3       1 <0>        -0.1450
     23 C18         5.1690   -6.9207    9.5923 C.3       1 <0>        -0.1401
     24 C19         4.5500   -8.2773    9.2431 C.3       1 <0>        -0.1459
     25 C20         4.2171   -8.3107    7.7500 C.3       1 <0>        -0.0061
     26 C21        -1.2620   -6.2978    2.2152 C.ar      1 <0>        -0.0939
     27 C22        -2.3846   -5.7138    2.7729 C.ar      1 <0>        -0.1108
     28 C23        -3.6170   -6.3291    2.6562 C.ar      1 <0>        -0.1006
     29 C24        -3.7299   -7.5299    1.9821 C.ar      1 <0>        -0.1326
     30 C25        -2.6054   -8.1177    1.4218 C.ar      1 <0>         0.1104
     31 C26        -1.3706   -7.4951    1.5351 C.ar      1 <0>        -0.1269
     32 O2         -2.7138   -9.2987    0.7582 O.3       1 <0>        -0.4974
     33 H2          0.7435    2.1756    1.1716 H         1 <0>         0.0696
     34 H3         -0.8723    2.2651    0.4302 H         1 <0>         0.0675
     35 H4         -0.7102    1.9726    2.1785 H         1 <0>         0.0655
     36 H5         -0.4198    0.5085   -1.1735 H         1 <0>         0.1291
     37 H6         -0.3702   -1.9043   -1.6171 H         1 <0>         0.1230
     38 H7         -0.0425   -0.1865    3.0074 H         1 <0>         0.1211
     39 H8          0.8296   -6.1790    1.7800 H         1 <0>         0.1198
     40 H9         -1.2754   -4.7118    4.5776 H         1 <0>         0.0924
     41 H10         0.1462   -4.6882    5.6516 H         1 <0>         0.0906
     42 H11         1.1786   -2.9154    4.4122 H         1 <0>         0.0756
     43 H12        -0.5298   -2.4343    4.5730 H         1 <0>         0.0916
     44 H13         2.1817   -5.2916    5.9298 H         1 <0>         0.1193
     45 H14         0.9282   -6.4889    6.3339 H         1 <0>         0.1198
     46 H15         2.5084   -8.3236    5.7997 H         1 <0>         0.1409
     47 H16         3.7619   -7.1263    5.3956 H         1 <0>         0.1392
     48 H17         4.7968   -5.8400    7.1207 H         1 <0>         0.1304
     49 H18         3.1852   -5.1424    7.4080 H         1 <0>         0.1293
     50 H19         4.6535   -4.8377    9.3836 H         1 <0>         0.1124
     51 H20         3.2776   -5.9010    9.7678 H         1 <0>         0.0879
     52 H21         6.1074   -6.7982    9.0515 H         1 <0>         0.0821
     53 H22         5.3559   -6.8706   10.6650 H         1 <0>         0.0945
     54 H23         5.2592   -9.0716    9.4758 H         1 <0>         0.1129
     55 H24         3.6382   -8.4213    9.8227 H         1 <0>         0.0878
     56 H25         3.7764   -9.2753    7.4979 H         1 <0>         0.1317
     57 H26         5.1297   -8.1669    7.1714 H         1 <0>         0.1298
     58 H27        -2.2983   -4.7756    3.3008 H         1 <0>         0.1297
     59 H28        -4.4923   -5.8710    3.0927 H         1 <0>         0.1325
     60 H29        -4.6928   -8.0106    1.8919 H         1 <0>         0.1339
     61 H30        -0.4943   -7.9484    1.0956 H         1 <0>         0.1313
     62 H31        -2.8923   -9.2036   -0.1874 H         1 <0>         0.3960
     63 H32         2.4397   -7.3451    8.0058 H         1 <0>         0.4216
@<TRIPOS>BOND
     1    1    2 1
     2    1   33 1
     3    1   34 1
     4    1   35 1
     5    2    7 ar
     6    2    3 ar
     7    3    4 ar
     8    3   36 1
     9    4    5 ar
    10    4   37 1
    11    5   10 1
    12    5    6 ar
    13    6    7 ar
    14    6    8 1
    15    7   38 1
    16    8   15 1
    17    8    9 2
    18    9   10 1
    19    9   12 1
    20   10   11 1
    21   12   13 1
    22   12   26 1
    23   12   39 1
    24   13   14 1
    25   13   16 am
    26   14   15 1
    27   14   40 1
    28   14   41 1
    29   15   42 1
    30   15   43 1
    31   16   17 2
    32   16   18 1
    33   18   19 1
    34   18   44 1
    35   18   45 1
    36   19   20 1
    37   19   46 1
    38   19   47 1
    39   20   25 1
    40   20   21 1
    41   20   63 1
    42   21   22 1
    43   21   48 1
    44   21   49 1
    45   22   23 1
    46   22   50 1
    47   22   51 1
    48   23   24 1
    49   23   52 1
    50   23   53 1
    51   24   25 1
    52   24   54 1
    53   24   55 1
    54   25   56 1
    55   25   57 1
    56   26   31 ar
    57   26   27 ar
    58   27   28 ar
    59   27   58 1
    60   28   29 ar
    61   28   59 1
    62   29   30 ar
    63   29   60 1
    64   30   31 ar
    65   30   32 1
    66   31   61 1
    67   32   62 1
@<TRIPOS>MOLECULE
CHEMBL594459
   60    64     0     0     0
SMALL
USER_CHARGES

@<TRIPOS>ATOM
      1 C1         -1.9092    1.2874   -0.3452 C.3       1 <0>        -0.1142
      2 C2         -1.5603   -0.1778   -0.2949 C.ar      1 <0>        -0.1027
      3 C3         -1.4612   -0.9028   -1.4747 C.ar      1 <0>        -0.0897
      4 C4         -1.1429   -2.2427   -1.4503 C.ar      1 <0>        -0.1241
      5 C5         -0.9182   -2.8783   -0.2336 C.ar      1 <0>         0.0996
      6 C6         -1.0199   -2.1392    0.9606 C.ar      1 <0>        -0.0942
      7 C7         -1.3385   -0.7803    0.9109 C.ar      1 <0>        -0.0742
      8 C8         -0.7327   -3.0807    2.0392 C.2       1 <0>        -0.1593
      9 C9         -0.4836   -4.2756    1.4698 C.2       1 <0>         0.0625
     10 N1         -0.5921   -4.1716    0.1128 N.pl3     1 <0>        -0.5778
     11 H1         -0.4596   -4.8998   -0.5142 H         1 <0>         0.4167
     12 C10        -0.1343   -5.5183    2.2595 C.3       1 <0>         0.2559
     13 N2         -0.4003   -5.2277    3.6789 N.am      1 <0>        -0.5752
     14 C11         0.0485   -3.9376    4.2240 C.3       1 <0>         0.0780
     15 C12        -0.7136   -2.8073    3.5207 C.3       1 <0>        -0.0627
     16 C13        -1.0396   -6.1219    4.4587 C.2       1 <0>         0.5279
     17 O1         -1.3265   -7.2149    4.0182 O.2       1 <0>        -0.5573
     18 C14        -1.3981   -5.7636    5.8779 C.3       1 <0>        -0.1356
     19 C15        -0.1200   -5.6392    6.7123 C.3       1 <0>        -0.1394
     20 C16         0.5854   -6.9979    6.7533 C.3       1 <0>        -0.1496
     21 C17        -0.3747   -8.0481    7.3162 C.3       1 <0>        -0.0079
     22 N3         -1.5637   -8.1380    6.4602 N.4       1 <0>        -0.3872
     23 C18        -2.2847   -6.8595    6.4732 C.3       1 <0>         0.0169
     24 C19        -2.4459   -9.2010    6.9601 C.3       1 <0>        -0.0448
     25 C20         1.3227   -5.8531    2.0695 C.ar      1 <0>        -0.0953
     26 C21         1.6906   -7.1103    1.6262 C.ar      1 <0>        -0.1110
     27 C22         3.0263   -7.4206    1.4509 C.ar      1 <0>        -0.0994
     28 C23         3.9973   -6.4749    1.7189 C.ar      1 <0>        -0.1323
     29 C24         3.6309   -5.2132    2.1636 C.ar      1 <0>         0.1107
     30 C25         2.2893   -4.9023    2.3329 C.ar      1 <0>        -0.1273
     31 O2          4.5842   -4.2812    2.4278 O.3       1 <0>        -0.4978
     32 H2         -0.9952    1.8761   -0.4232 H         1 <0>         0.0707
     33 H3         -2.5411    1.4808   -1.2120 H         1 <0>         0.0676
     34 H4         -2.4437    1.5650    0.5633 H         1 <0>         0.0659
     35 H5         -1.6357   -0.4116   -2.4206 H         1 <0>         0.1297
     36 H6         -1.0683   -2.7983   -2.3733 H         1 <0>         0.1232
     37 H7         -1.4129   -0.2080    1.8238 H         1 <0>         0.1222
     38 H8         -0.7531   -6.3529    1.9299 H         1 <0>         0.1211
     39 H9         -0.1543   -3.9034    5.2944 H         1 <0>         0.1045
     40 H10         1.1180   -3.8201    4.0497 H         1 <0>         0.0961
     41 H11        -0.2142   -1.8572    3.7103 H         1 <0>         0.0942
     42 H12        -1.7356   -2.7663    3.8976 H         1 <0>         0.0794
     43 H13        -1.9348   -4.8150    5.8894 H         1 <0>         0.1458
     44 H14         0.5402   -4.8993    6.2597 H         1 <0>         0.1062
     45 H15        -0.3751   -5.3302    7.7260 H         1 <0>         0.1028
     46 H16         0.8858   -7.2827    5.7450 H         1 <0>         0.0857
     47 H17         1.4667   -6.9314    7.3913 H         1 <0>         0.1185
     48 H18         0.1244   -9.0166    7.3470 H         1 <0>         0.1304
     49 H19        -0.6743   -7.7625    8.3246 H         1 <0>         0.1294
     50 H20        -2.5435   -6.5993    7.4996 H         1 <0>         0.1386
     51 H21        -3.1956   -6.9506    5.8816 H         1 <0>         0.1344
     52 H22        -2.7493   -8.9710    7.9815 H         1 <0>         0.1199
     53 H23        -3.3292   -9.2687    6.3251 H         1 <0>         0.1227
     54 H24        -1.9136  -10.1521    6.9447 H         1 <0>         0.1224
     55 H25         0.9331   -7.8511    1.4169 H         1 <0>         0.1276
     56 H26         3.3110   -8.4031    1.1046 H         1 <0>         0.1334
     57 H27         5.0407   -6.7180    1.5825 H         1 <0>         0.1343
     58 H28         2.0013   -3.9191    2.6745 H         1 <0>         0.1337
     59 H29         4.8161   -3.7296    1.6682 H         1 <0>         0.3975
     60 H30        -1.2815   -8.3543    5.5160 H         1 <0>         0.4328
@<TRIPOS>BOND
     1    1    2 1
     2    1   32 1
     3    1   33 1
     4    1   34 1
     5    2    7 ar
     6    2    3 ar
     7    3    4 ar
     8    3   35 1
     9    4    5 ar
    10    4   36 1
    11    5   10 1
    12    5    6 ar
    13    6    7 ar
    14    6    8 1
    15    7   37 1
    16    8   15 1
    17    8    9 2
    18    9   10 1
    19    9   12 1
    20   10   11 1
    21   12   13 1
    22   12   25 1
    23   12   38 1
    24   13   14 1
    25   13   16 am
    26   14   15 1
    27   14   39 1
    28   14   40 1
    29   15   41 1
    30   15   42 1
    31   16   17 2
    32   16   18 1
    33   18   23 1
    34   18   19 1
    35   18   43 1
    36   19   20 1
    37   19   44 1
    38   19   45 1
    39   20   21 1
    40   20   46 1
    41   20   47 1
    42   21   22 1
    43   21   48 1
    44   21   49 1
    45   22   23 1
    46   22   24 1
    47   22   60 1
    48   23   50 1
    49   23   51 1
    50   24   52 1
    51   24   53 1
    52   24   54 1
    53   25   30 ar
    54   25   26 ar
    55   26   27 ar
    56   26   55 1
    57   27   28 ar
    58   27   56 1
    59   28   29 ar
    60   28   57 1
    61   29   30 ar
    62   29   31 1
    63   30   58 1
    64   31   59 1
@<TRIPOS>MOLECULE
CHEMBL594459__1
   60    64     0     0     0
SMALL
USER_CHARGES

@<TRIPOS>ATOM
      1 C1         -1.7333    2.1777    1.9403 C.3       1 <0>        -0.1144
      2 C2         -1.6261    0.7313    1.5312 C.ar      1 <0>        -0.1040
      3 C3         -1.8955    0.3651    0.2195 C.ar      1 <0>        -0.0879
      4 C4         -1.8028   -0.9514   -0.1747 C.ar      1 <0>        -0.1267
      5 C5         -1.4361   -1.9256    0.7479 C.ar      1 <0>         0.1022
      6 C6         -1.1639   -1.5498    2.0774 C.ar      1 <0>        -0.0972
      7 C7         -1.2591   -0.2079    2.4527 C.ar      1 <0>        -0.0712
      8 C8         -0.8158   -2.7827    2.7781 C.2       1 <0>        -0.1399
      9 C9         -0.8900   -3.7854    1.8819 C.2       1 <0>         0.0479
     10 N1         -1.2610   -3.2899    0.6649 N.pl3     1 <0>        -0.5813
     11 H1         -1.3833   -3.8195   -0.1385 H         1 <0>         0.4126
     12 C10        -0.5916   -5.2297    2.2209 C.3       1 <0>         0.2558
     13 N2         -0.5042   -5.3290    3.6880 N.am      1 <0>        -0.5899
     14 C11         0.2534   -4.2986    4.4141 C.3       1 <0>         0.0993
     15 C12        -0.4433   -2.9447    4.2290 C.3       1 <0>        -0.0630
     16 C13        -1.1041   -6.3390    4.3486 C.2       1 <0>         0.5339
     17 O1         -1.1018   -6.3563    5.5613 O.2       1 <0>        -0.5176
     18 C14        -1.7777   -7.4468    3.5805 C.3       1 <0>        -0.1358
     19 C15        -0.7369   -8.4946    3.1756 C.3       1 <0>        -0.1308
     20 C16        -1.4427   -9.6529    2.4647 C.3       1 <0>        -0.1417
     21 C17        -2.5186  -10.2304    3.3869 C.3       1 <0>        -0.0110
     22 N3         -3.4973   -9.1872    3.7163 N.4       1 <0>        -0.3836
     23 C18        -2.8411   -8.1061    4.4614 C.3       1 <0>         0.0080
     24 C19        -4.5693   -9.7654    4.5376 C.3       1 <0>        -0.0466
     25 C20         0.7187   -5.6412    1.6006 C.ar      1 <0>        -0.0929
     26 C21         1.8280   -5.8451    2.4008 C.ar      1 <0>        -0.1206
     27 C22         3.0315   -6.2226    1.8349 C.ar      1 <0>        -0.0931
     28 C23         3.1289   -6.3967    0.4677 C.ar      1 <0>        -0.1353
     29 C24         2.0177   -6.1927   -0.3371 C.ar      1 <0>         0.1179
     30 C25         0.8093   -5.8198    0.2340 C.ar      1 <0>        -0.1381
     31 O2          2.1109   -6.3634   -1.6821 O.3       1 <0>        -0.4948
     32 H2         -0.7720    2.6696    1.7917 H         1 <0>         0.0709
     33 H3         -2.4919    2.6718    1.3332 H         1 <0>         0.0674
     34 H4         -2.0136    2.2381    2.9919 H         1 <0>         0.0662
     35 H5         -2.1809    1.1196   -0.4987 H         1 <0>         0.1296
     36 H6         -2.0145   -1.2266   -1.1974 H         1 <0>         0.1227
     37 H7         -1.0466    0.0860    3.4700 H         1 <0>         0.1230
     38 H8         -1.3937   -5.8698    1.8533 H         1 <0>         0.1073
     39 H9          0.2870   -4.5497    5.4743 H         1 <0>         0.1077
     40 H10         1.2675   -4.2444    4.0181 H         1 <0>         0.0894
     41 H11         0.2332   -2.1426    4.5240 H         1 <0>         0.0922
     42 H12        -1.3432   -2.9101    4.8431 H         1 <0>         0.0798
     43 H13        -2.2484   -7.0363    2.6872 H         1 <0>         0.1132
     44 H14        -0.0083   -8.0433    2.5020 H         1 <0>         0.1017
     45 H15        -0.2300   -8.8677    4.0655 H         1 <0>         0.0935
     46 H16        -1.9064   -9.2888    1.5479 H         1 <0>         0.0898
     47 H17        -0.7161  -10.4285    2.2228 H         1 <0>         0.1191
     48 H18        -3.0230  -11.0554    2.8840 H         1 <0>         0.1347
     49 H19        -2.0538  -10.5943    4.3033 H         1 <0>         0.1320
     50 H20        -2.3695   -8.5153    5.3548 H         1 <0>         0.1441
     51 H21        -3.5837   -7.3628    4.7516 H         1 <0>         0.1362
     52 H22        -4.1451  -10.1696    5.4567 H         1 <0>         0.1243
     53 H23        -5.2967   -8.9915    4.7828 H         1 <0>         0.1253
     54 H24        -5.0616  -10.5640    3.9827 H         1 <0>         0.1266
     55 H25         1.7541   -5.7088    3.4696 H         1 <0>         0.1340
     56 H26         3.8963   -6.3812    2.4620 H         1 <0>         0.1337
     57 H27         4.0694   -6.6909    0.0260 H         1 <0>         0.1348
     58 H28        -0.0585   -5.6650   -0.3900 H         1 <0>         0.1232
     59 H29         1.9150   -7.2626   -1.9790 H         1 <0>         0.3943
     60 H30        -3.8915   -8.8164    2.8648 H         1 <0>         0.4230
@<TRIPOS>BOND
     1    1    2 1
     2    1   32 1
     3    1   33 1
     4    1   34 1
     5    2    7 ar
     6    2    3 ar
     7    3    4 ar
     8    3   35 1
     9    4    5 ar
    10    4   36 1
    11    5   10 1
    12    5    6 ar
    13    6    7 ar
    14    6    8 1
    15    7   37 1
    16    8   15 1
    17    8    9 2
    18    9   10 1
    19    9   12 1
    20   10   11 1
    21   12   13 1
    22   12   25 1
    23   12   38 1
    24   13   14 1
    25   13   16 am
    26   14   15 1
    27   14   39 1
    28   14   40 1
    29   15   41 1
    30   15   42 1
    31   16   17 2
    32   16   18 1
    33   18   23 1
    34   18   19 1
    35   18   43 1
    36   19   20 1
    37   19   44 1
    38   19   45 1
    39   20   21 1
    40   20   46 1
    41   20   47 1
    42   21   22 1
    43   21   48 1
    44   21   49 1
    45   22   23 1
    46   22   24 1
    47   22   60 1
    48   23   50 1
    49   23   51 1
    50   24   52 1
    51   24   53 1
    52   24   54 1
    53   25   30 ar
    54   25   26 ar
    55   26   27 ar
    56   26   55 1
    57   27   28 ar
    58   27   56 1
    59   28   29 ar
    60   28   57 1
    61   29   30 ar
    62   29   31 1
    63   30   58 1
    64   31   59 1
@<TRIPOS>MOLECULE
CHEMBL594459__2
   60    64     0     0     0
SMALL
USER_CHARGES

@<TRIPOS>ATOM
      1 C1         -1.7700    1.4503    1.5506 C.3       1 <0>        -0.1144
      2 C2         -1.4888    0.0017    1.2448 C.ar      1 <0>        -0.1022
      3 C3         -1.5492   -0.4493   -0.0668 C.ar      1 <0>        -0.0900
      4 C4         -1.2961   -1.7695   -0.3673 C.ar      1 <0>        -0.1236
      5 C5         -0.9760   -2.6616    0.6508 C.ar      1 <0>         0.0995
      6 C6         -0.9153   -2.1998    1.9796 C.ar      1 <0>        -0.0934
      7 C7         -1.1712   -0.8556    2.2597 C.ar      1 <0>        -0.0750
      8 C8         -0.5609   -3.3612    2.7907 C.2       1 <0>        -0.1610
      9 C9         -0.4349   -4.4088    1.9537 C.2       1 <0>         0.0665
     10 N1         -0.6781   -4.0069    0.6717 N.pl3     1 <0>        -0.5777
     11 H1         -0.6463   -4.5827   -0.1082 H         1 <0>         0.4166
     12 C10        -0.0802   -5.8057    2.4147 C.3       1 <0>         0.2553
     13 N2          0.3543   -5.7092    3.8190 N.am      1 <0>        -0.5759
     14 C11        -0.4368   -4.8790    4.7397 C.3       1 <0>         0.0785
     15 C12        -0.3601   -3.4167    4.2829 C.3       1 <0>        -0.0616
     16 C13         1.4497   -6.3660    4.2495 C.2       1 <0>         0.5275
     17 O1          2.1441   -6.9701    3.4596 O.2       1 <0>        -0.5568
     18 C14         1.8116   -6.3498    5.7123 C.3       1 <0>        -0.1349
     19 C15         2.2130   -4.9304    6.1240 C.3       1 <0>        -0.1421
     20 C16         3.4646   -4.5178    5.3440 C.3       1 <0>        -0.1496
     21 C17         4.5788   -5.5339    5.6037 C.3       1 <0>        -0.0082
     22 N3          4.1438   -6.8654    5.1649 N.4       1 <0>        -0.3871
     23 C18         2.9871   -7.2980    5.9583 C.3       1 <0>         0.0165
     24 C19         5.2440   -7.8221    5.3441 C.3       1 <0>        -0.0448
     25 C20        -1.2881   -6.7010    2.3127 C.ar      1 <0>        -0.0975
     26 C21        -2.4704   -6.3394    2.9322 C.ar      1 <0>        -0.1099
     27 C22        -3.5802   -7.1586    2.8405 C.ar      1 <0>        -0.0991
     28 C23        -3.5105   -8.3413    2.1296 C.ar      1 <0>        -0.1305
     29 C24        -2.3258   -8.7062    1.5072 C.ar      1 <0>         0.1110
     30 C25        -1.2150   -7.8794    1.5957 C.ar      1 <0>        -0.1276
     31 O2         -2.2547   -9.8690    0.8074 O.3       1 <0>        -0.4971
     32 H2         -0.8418    2.0194    1.4984 H         1 <0>         0.0700
     33 H3         -2.4792    1.8443    0.8227 H         1 <0>         0.0679
     34 H4         -2.1923    1.5349    2.5519 H         1 <0>         0.0662
     35 H5         -1.7973    0.2414   -0.8591 H         1 <0>         0.1296
     36 H6         -1.3463   -2.1112   -1.3906 H         1 <0>         0.1232
     37 H7         -1.1219   -0.4957    3.2768 H         1 <0>         0.1219
     38 H8          0.7295   -6.2034    1.8029 H         1 <0>         0.1204
     39 H9         -1.4751   -5.2106    4.7293 H         1 <0>         0.0958
     40 H10        -0.0339   -4.9677    5.7486 H         1 <0>         0.1032
     41 H11         0.6176   -3.0061    4.5353 H         1 <0>         0.0777
     42 H12        -1.1399   -2.8382    4.7781 H         1 <0>         0.0953
     43 H13         0.9542   -6.6721    6.3030 H         1 <0>         0.1456
     44 H14         1.3991   -4.2415    5.8981 H         1 <0>         0.1085
     45 H15         2.4255   -4.9073    7.1928 H         1 <0>         0.1024
     46 H16         3.2371   -4.4916    4.2783 H         1 <0>         0.0853
     47 H17         3.7888   -3.5303    5.6720 H         1 <0>         0.1190
     48 H18         5.4715   -5.2431    5.0499 H         1 <0>         0.1303
     49 H19         4.8057   -5.5592    6.6695 H         1 <0>         0.1297
     50 H20         3.2479   -7.2857    7.0166 H         1 <0>         0.1387
     51 H21         2.7047   -8.3095    5.6664 H         1 <0>         0.1346
     52 H22         5.5252   -7.8596    6.3966 H         1 <0>         0.1201
     53 H23         4.9220   -8.8113    5.0186 H         1 <0>         0.1229
     54 H24         6.1013   -7.5053    4.7501 H         1 <0>         0.1224
     55 H25        -2.5267   -5.4157    3.4889 H         1 <0>         0.1302
     56 H26        -4.5024   -6.8739    3.3252 H         1 <0>         0.1337
     57 H27        -4.3776   -8.9812    2.0588 H         1 <0>         0.1350
     58 H28        -0.2928   -8.1590    1.1081 H         1 <0>         0.1303
     59 H29        -2.4876   -9.7805   -0.1270 H         1 <0>         0.3964
     60 H30         3.8871   -6.8299    4.1898 H         1 <0>         0.4326
@<TRIPOS>BOND
     1    1    2 1
     2    1   32 1
     3    1   33 1
     4    1   34 1
     5    2    7 ar
     6    2    3 ar
     7    3    4 ar
     8    3   35 1
     9    4    5 ar
    10    4   36 1
    11    5   10 1
    12    5    6 ar
    13    6    7 ar
    14    6    8 1
    15    7   37 1
    16    8   15 1
    17    8    9 2
    18    9   10 1
    19    9   12 1
    20   10   11 1
    21   12   13 1
    22   12   25 1
    23   12   38 1
    24   13   14 1
    25   13   16 am
    26   14   15 1
    27   14   39 1
    28   14   40 1
    29   15   41 1
    30   15   42 1
    31   16   17 2
    32   16   18 1
    33   18   23 1
    34   18   19 1
    35   18   43 1
    36   19   20 1
    37   19   44 1
    38   19   45 1
    39   20   21 1
    40   20   46 1
    41   20   47 1
    42   21   22 1
    43   21   48 1
    44   21   49 1
    45   22   23 1
    46   22   24 1
    47   22   60 1
    48   23   50 1
    49   23   51 1
    50   24   52 1
    51   24   53 1
    52   24   54 1
    53   25   30 ar
    54   25   26 ar
    55   26   27 ar
    56   26   55 1
    57   27   28 ar
    58   27   56 1
    59   28   29 ar
    60   28   57 1
    61   29   30 ar
    62   29   31 1
    63   30   58 1
    64   31   59 1
@<TRIPOS>MOLECULE
CHEMBL594459__3
   60    64     0     0     0
SMALL
USER_CHARGES

@<TRIPOS>ATOM
      1 C1          2.7071    1.5738    0.6821 C.3       1 <0>        -0.1136
      2 C2          2.1918    0.1654    0.5336 C.ar      1 <0>        -0.1036
      3 C3          1.9097   -0.3347   -0.7304 C.ar      1 <0>        -0.0912
      4 C4          1.4375   -1.6190   -0.8876 C.ar      1 <0>        -0.1231
      5 C5          1.2410   -2.4253    0.2287 C.ar      1 <0>         0.0991
      6 C6          1.5290   -1.9142    1.5088 C.ar      1 <0>        -0.0935
      7 C7          2.0114   -0.6104    1.6433 C.ar      1 <0>        -0.0752
      8 C8          1.2221   -2.9901    2.4472 C.2       1 <0>        -0.1630
      9 C9          0.7857   -4.0385    1.7231 C.2       1 <0>         0.0695
     10 N1          0.7928   -3.7176    0.3960 N.pl3     1 <0>        -0.5779
     11 H1          0.5222   -4.3109   -0.3222 H         1 <0>         0.4168
     12 C10         0.3574   -5.3541    2.3361 C.3       1 <0>         0.2570
     13 N2          0.7732   -5.3378    3.7491 N.am      1 <0>        -0.5878
     14 C11         0.5285   -4.1194    4.5356 C.3       1 <0>         0.0894
     15 C12         1.3589   -2.9716    3.9475 C.3       1 <0>        -0.0603
     16 C13         1.3630   -6.4133    4.3077 C.2       1 <0>         0.5326
     17 O1          1.6355   -7.3782    3.6254 O.2       1 <0>        -0.5247
     18 C14         1.6840   -6.4168    5.7801 C.3       1 <0>        -0.1319
     19 C15         0.4388   -6.8222    6.5740 C.3       1 <0>        -0.1295
     20 C16         0.7961   -6.8988    8.0612 C.3       1 <0>        -0.1422
     21 C17         1.9518   -7.8833    8.2525 C.3       1 <0>        -0.0110
     22 N3          3.1199   -7.4263    7.4900 N.4       1 <0>        -0.3832
     23 C18         2.8068   -7.4191    6.0559 C.3       1 <0>         0.0079
     24 C19         4.2497   -8.3316    7.7385 C.3       1 <0>        -0.0465
     25 C20        -1.1399   -5.4985    2.2444 C.ar      1 <0>        -0.0937
     26 C21        -1.9618   -4.5101    2.7541 C.ar      1 <0>        -0.1107
     27 C22        -3.3357   -4.6396    2.6716 C.ar      1 <0>        -0.1003
     28 C23        -3.8910   -5.7577    2.0796 C.ar      1 <0>        -0.1324
     29 C24        -3.0687   -6.7506    1.5675 C.ar      1 <0>         0.1109
     30 C25        -1.6900   -6.6153    1.6462 C.ar      1 <0>        -0.1275
     31 O2         -3.6125   -7.8513    0.9848 O.3       1 <0>        -0.4973
     32 H2          3.7960    1.5692    0.6341 H         1 <0>         0.0696
     33 H3          2.3105    2.1926   -0.1229 H         1 <0>         0.0676
     34 H4          2.3874    1.9782    1.6425 H         1 <0>         0.0655
     35 H5          2.0615    0.2893   -1.5987 H         1 <0>         0.1292
     36 H6          1.2200   -1.9989   -1.8749 H         1 <0>         0.1231
     37 H7          2.2376   -0.2153    2.6226 H         1 <0>         0.1210
     38 H8          0.8426   -6.1803    1.8166 H         1 <0>         0.1200
     39 H9         -0.5302   -3.8635    4.4919 H         1 <0>         0.0926
     40 H10         0.8221   -4.2887    5.5715 H         1 <0>         0.0919
     41 H11         2.4062   -3.1016    4.2203 H         1 <0>         0.0754
     42 H12         0.9940   -2.0208    4.3358 H         1 <0>         0.0917
     43 H13         2.0027   -5.4201    6.0856 H         1 <0>         0.1195
     44 H14        -0.3458   -6.0803    6.4254 H         1 <0>         0.1007
     45 H15         0.0900   -7.7968    6.2323 H         1 <0>         0.0919
     46 H16         1.0960   -5.9123    8.4147 H         1 <0>         0.0920
     47 H17        -0.0707   -7.2408    8.6266 H         1 <0>         0.1192
     48 H18         2.2086   -7.9403    9.3102 H         1 <0>         0.1348
     49 H19         1.6508   -8.8694    7.8989 H         1 <0>         0.1309
     50 H20         2.4876   -8.4152    5.7492 H         1 <0>         0.1424
     51 H21         3.6949   -7.1335    5.4921 H         1 <0>         0.1360
     52 H22         3.9825   -9.3408    7.4249 H         1 <0>         0.1235
     53 H23         5.1177   -7.9932    7.1726 H         1 <0>         0.1251
     54 H24         4.4873   -8.3327    8.8022 H         1 <0>         0.1267
     55 H25        -1.5297   -3.6357    3.2178 H         1 <0>         0.1297
     56 H26        -3.9755   -3.8663    3.0704 H         1 <0>         0.1325
     57 H27        -4.9644   -5.8588    2.0160 H         1 <0>         0.1339
     58 H28        -1.0477   -7.3847    1.2440 H         1 <0>         0.1310
     59 H29        -3.7618   -7.7596    0.0338 H         1 <0>         0.3962
     60 H30         3.3681   -6.4935    7.7837 H         1 <0>         0.4238
@<TRIPOS>BOND
     1    1    2 1
     2    1   32 1
     3    1   33 1
     4    1   34 1
     5    2    7 ar
     6    2    3 ar
     7    3    4 ar
     8    3   35 1
     9    4    5 ar
    10    4   36 1
    11    5   10 1
    12    5    6 ar
    13    6    7 ar
    14    6    8 1
    15    7   37 1
    16    8   15 1
    17    8    9 2
    18    9   10 1
    19    9   12 1
    20   10   11 1
    21   12   13 1
    22   12   25 1
    23   12   38 1
    24   13   14 1
    25   13   16 am
    26   14   15 1
    27   14   39 1
    28   14   40 1
    29   15   41 1
    30   15   42 1
    31   16   17 2
    32   16   18 1
    33   18   23 1
    34   18   19 1
    35   18   43 1
    36   19   20 1
    37   19   44 1
    38   19   45 1
    39   20   21 1
    40   20   46 1
    41   20   47 1
    42   21   22 1
    43   21   48 1
    44   21   49 1
    45   22   23 1
    46   22   24 1
    47   22   60 1
    48   23   50 1
    49   23   51 1
    50   24   52 1
    51   24   53 1
    52   24   54 1
    53   25   30 ar
    54   25   26 ar
    55   26   27 ar
    56   26   55 1
    57   27   28 ar
    58   27   56 1
    59   28   29 ar
    60   28   57 1
    61   29   30 ar
    62   29   31 1
    63   30   58 1
    64   31   59 1
@<TRIPOS>MOLECULE
CHEMBL401006
   60    63     0     0     0
SMALL
USER_CHARGES

@<TRIPOS>ATOM
      1 C1         -0.5512    1.6365   -0.3574 C.3       1 <0>        -0.1964
      2 C2         -0.3655    0.1483   -0.2099 C.2       1 <0>         0.4351
      3 O1         -0.3812   -0.3594    0.8937 O.2       1 <0>        -0.4537
      4 C3         -0.1738   -0.6537   -1.3509 C.2       1 <0>        -0.0691
      5 N1         -0.2152   -0.2467   -2.5843 N.2       1 <0>        -0.1297
      6 N2         -0.0138   -1.1331   -3.4817 N.pl3     1 <0>        -0.3928
      7 C4          0.2243   -2.4477   -2.8643 C.3       1 <0>         0.0668
      8 C5          0.1232   -2.1412   -1.3533 C.3       1 <0>         0.0062
      9 C6         -1.0229   -2.9280   -0.7142 C.3       1 <0>        -0.1050
     10 C7         -2.3362   -2.5767   -1.4161 C.3       1 <0>        -0.1213
     11 C8         -3.4734   -3.4049   -0.8144 C.3       1 <0>         0.0618
     12 N3         -4.7344   -3.0676   -1.4883 N.3       1 <0>        -0.5571
     13 C9         -5.1009   -1.6701   -1.2473 C.3       1 <0>         0.0579
     14 C10        -6.1404   -1.2190   -2.2787 C.3       1 <0>        -0.5942
     15 S1         -7.6356   -2.2344   -2.0752 S.o2      1 <0>         2.4084
     16 O2         -8.4641   -2.0542   -3.2156 O.2       1 <0>        -0.9402
     17 O3         -8.1735   -1.9944   -0.7821 O.2       1 <0>        -0.9375
     18 C11        -6.9478   -3.9176   -2.1186 C.3       1 <0>        -0.5958
     19 C12        -5.7981   -4.0003   -1.1090 C.3       1 <0>         0.0638
     20 C13         1.4269   -2.4306   -0.6549 C.ar      1 <0>        -0.0663
     21 C14         1.4673   -3.3421    0.3835 C.ar      1 <0>        -0.1016
     22 C15         2.6631   -3.6076    1.0241 C.ar      1 <0>        -0.1159
     23 C16         3.8187   -2.9618    0.6259 C.ar      1 <0>        -0.1166
     24 C17         3.7785   -2.0509   -0.4131 C.ar      1 <0>        -0.1167
     25 C18         2.5834   -1.7887   -1.0565 C.ar      1 <0>        -0.1124
     26 C19        -0.0192   -0.8891   -4.8565 C.ar      1 <0>         0.1624
     27 C20         1.0756   -1.2496   -5.6319 C.ar      1 <0>        -0.1333
     28 C21         1.0667   -1.0063   -6.9933 C.ar      1 <0>         0.1118
     29 C22        -0.0321   -0.4039   -7.5837 C.ar      1 <0>        -0.1203
     30 C23        -1.1234   -0.0439   -6.8149 C.ar      1 <0>        -0.1084
     31 C24        -1.1237   -0.2893   -5.4540 C.ar      1 <0>         0.0995
     32 F1         -2.1930    0.0574   -4.7045 F         1 <0>        -0.1194
     33 F2          2.1311   -1.3561   -7.7482 F         1 <0>        -0.1260
     34 H1          0.4200    2.1296   -0.3167 H         1 <0>         0.0952
     35 H2         -1.0274    1.8501   -1.3143 H         1 <0>         0.0881
     36 H3         -1.1806    2.0061    0.4522 H         1 <0>         0.0871
     37 H4         -0.5412   -3.1614   -3.1688 H         1 <0>         0.1008
     38 H5          1.2190   -2.8169   -3.1140 H         1 <0>         0.0937
     39 H6         -0.8311   -3.9962   -0.8157 H         1 <0>         0.0765
     40 H7         -1.0955   -2.6706    0.3424 H         1 <0>         0.0901
     41 H8         -2.5482   -1.5161   -1.2807 H         1 <0>         0.0678
     42 H9         -2.2499   -2.7971   -2.4801 H         1 <0>         0.0710
     43 H10        -3.2615   -4.4655   -0.9498 H         1 <0>         0.0836
     44 H11        -3.5598   -3.1845    0.2496 H         1 <0>         0.0461
     45 H12        -5.5190   -1.5730   -0.2453 H         1 <0>         0.0607
     46 H13        -4.2129   -1.0434   -1.3301 H         1 <0>         0.1024
     47 H14        -6.3858   -0.1694   -2.1163 H         1 <0>         0.1394
     48 H15        -5.7408   -1.3531   -3.2839 H         1 <0>         0.1416
     49 H16        -7.7222   -4.6365   -1.8512 H         1 <0>         0.1393
     50 H17        -6.5729   -4.1342   -3.1189 H         1 <0>         0.1421
     51 H18        -5.4013   -5.0155   -1.0944 H         1 <0>         0.0999
     52 H19        -6.1683   -3.7432   -0.1166 H         1 <0>         0.0607
     53 H20         0.5644   -3.8467    0.6946 H         1 <0>         0.1272
     54 H21         2.6945   -4.3192    1.8359 H         1 <0>         0.1242
     55 H22         4.7528   -3.1686    1.1269 H         1 <0>         0.1227
     56 H23         4.6812   -1.5461   -0.7239 H         1 <0>         0.1220
     57 H24         2.5527   -1.0798   -1.8707 H         1 <0>         0.1123
     58 H25         1.9327   -1.7189   -5.1721 H         1 <0>         0.1505
     59 H26        -0.0363   -0.2148   -8.6470 H         1 <0>         0.1543
     60 H27        -1.9784    0.4256   -7.2785 H         1 <0>         0.1569
@<TRIPOS>BOND
     1    1    2 1
     2    1   34 1
     3    1   35 1
     4    1   36 1
     5    2    3 2
     6    2    4 1
     7    4    8 1
     8    4    5 2
     9    5    6 1
    10    6    7 1
    11    6   26 1
    12    7    8 1
    13    7   37 1
    14    7   38 1
    15    8    9 1
    16    8   20 1
    17    9   10 1
    18    9   39 1
    19    9   40 1
    20   10   11 1
    21   10   41 1
    22   10   42 1
    23   11   12 1
    24   11   43 1
    25   11   44 1
    26   12   19 1
    27   12   13 1
    28   13   14 1
    29   13   45 1
    30   13   46 1
    31   14   15 1
    32   14   47 1
    33   14   48 1
    34   15   16 2
    35   15   17 2
    36   15   18 1
    37   18   19 1
    38   18   49 1
    39   18   50 1
    40   19   51 1
    41   19   52 1
    42   20   25 ar
    43   20   21 ar
    44   21   22 ar
    45   21   53 1
    46   22   23 ar
    47   22   54 1
    48   23   24 ar
    49   23   55 1
    50   24   25 ar
    51   24   56 1
    52   25   57 1
    53   26   31 ar
    54   26   27 ar
    55   27   28 ar
    56   27   58 1
    57   28   29 ar
    58   28   33 1
    59   29   30 ar
    60   29   59 1
    61   30   31 ar
    62   30   60 1
    63   31   32 1
@<TRIPOS>MOLECULE
CHEMBL401006__1
   60    63     0     0     0
SMALL
USER_CHARGES

@<TRIPOS>ATOM
      1 C1         -0.2492    1.6065   -0.3653 C.3       1 <0>        -0.1958
      2 C2         -0.1776    0.1076   -0.2266 C.2       1 <0>         0.4357
      3 O1         -0.2023   -0.4022    0.8757 O.2       1 <0>        -0.4525
      4 C3         -0.0822   -0.7018   -1.3745 C.2       1 <0>        -0.0644
      5 N1         -0.1517   -0.2904   -2.6051 N.2       1 <0>        -0.1307
      6 N2         -0.0412   -1.1852   -3.5100 N.pl3     1 <0>        -0.3948
      7 C4          0.1449   -2.5128   -2.9028 C.3       1 <0>         0.0671
      8 C5          0.1262   -2.2042   -1.3890 C.3       1 <0>         0.0057
      9 C6          1.4591   -2.5771   -0.7368 C.3       1 <0>        -0.1053
     10 C7          2.5930   -1.8082   -1.4181 C.3       1 <0>        -0.1223
     11 C8          3.9082   -2.0853   -0.6871 C.3       1 <0>         0.0617
     12 N3          4.9968   -1.3471   -1.3412 N.3       1 <0>        -0.5570
     13 C9          5.2049   -1.8230   -2.7107 C.3       1 <0>         0.0590
     14 C10         6.0077   -0.7876   -3.5055 C.3       1 <0>        -0.5972
     15 S1          7.6388   -0.5962   -2.7240 S.o2      1 <0>         2.4094
     16 O2          8.2546    0.5749   -3.2423 O.2       1 <0>        -0.9391
     17 O3          8.3280   -1.8362   -2.8048 O.2       1 <0>        -0.9377
     18 C11         7.1840   -0.2927   -0.9894 C.3       1 <0>        -0.5959
     19 C12         6.2207   -1.3956   -0.5380 C.3       1 <0>         0.0640
     20 C13        -1.0186   -2.9127   -0.7119 C.ar      1 <0>        -0.0650
     21 C14        -0.7774   -3.7389    0.3698 C.ar      1 <0>        -0.1000
     22 C15        -1.8275   -4.3888    0.9909 C.ar      1 <0>        -0.1166
     23 C16        -3.1190   -4.2121    0.5306 C.ar      1 <0>        -0.1166
     24 C17        -3.3603   -3.3851   -0.5505 C.ar      1 <0>        -0.1168
     25 C18        -2.3106   -2.7319   -1.1690 C.ar      1 <0>        -0.1111
     26 C19        -0.0906   -0.9383   -4.8834 C.ar      1 <0>         0.1640
     27 C20         0.9471   -1.3610   -5.7045 C.ar      1 <0>        -0.1335
     28 C21         0.8948   -1.1147   -7.0644 C.ar      1 <0>         0.1120
     29 C22        -0.1906   -0.4473   -7.6078 C.ar      1 <0>        -0.1207
     30 C23        -1.2252   -0.0252   -6.7934 C.ar      1 <0>        -0.1074
     31 C24        -1.1822   -0.2732   -5.4336 C.ar      1 <0>         0.0978
     32 F1         -2.1964    0.1343   -4.6395 F         1 <0>        -0.1202
     33 F2          1.9038   -1.5250   -7.8637 F         1 <0>        -0.1259
     34 H1          0.7587    2.0212   -0.3512 H         1 <0>         0.0959
     35 H2         -0.7338    1.8614   -1.3078 H         1 <0>         0.0876
     36 H3         -0.8243    2.0210    0.4627 H         1 <0>         0.0867
     37 H4         -0.6736   -3.1795   -3.1742 H         1 <0>         0.0954
     38 H5          1.1045   -2.9395   -3.1945 H         1 <0>         0.0961
     39 H6          1.4302   -2.3193    0.3219 H         1 <0>         0.0897
     40 H7          1.6298   -3.6481   -0.8455 H         1 <0>         0.0764
     41 H8          2.6789   -2.1312   -2.4556 H         1 <0>         0.0621
     42 H9          2.3778   -0.7401   -1.3867 H         1 <0>         0.0769
     43 H10         3.8223   -1.7623    0.3504 H         1 <0>         0.0860
     44 H11         4.1233   -3.1534   -0.7185 H         1 <0>         0.0447
     45 H12         5.7522   -2.7654   -2.6874 H         1 <0>         0.0605
     46 H13         4.2388   -1.9784   -3.1908 H         1 <0>         0.0991
     47 H14         6.1318   -1.1306   -4.5327 H         1 <0>         0.1389
     48 H15         5.4830    0.1678   -3.4966 H         1 <0>         0.1421
     49 H16         8.0790   -0.3114   -0.3676 H         1 <0>         0.1400
     50 H17         6.6953    0.6778   -0.9034 H         1 <0>         0.1431
     51 H18         5.9702   -1.2500    0.5128 H         1 <0>         0.1012
     52 H19         6.6982   -2.3674   -0.6639 H         1 <0>         0.0606
     53 H20         0.2316   -3.8769    0.7295 H         1 <0>         0.1263
     54 H21        -1.6390   -5.0348    1.8356 H         1 <0>         0.1237
     55 H22        -3.9393   -4.7203    1.0154 H         1 <0>         0.1223
     56 H23        -4.3692   -3.2473   -0.9104 H         1 <0>         0.1216
     57 H24        -2.4996   -2.0829   -2.0113 H         1 <0>         0.1124
     58 H25         1.7938   -1.8811   -5.2814 H         1 <0>         0.1493
     59 H26        -0.2287   -0.2559   -8.6700 H         1 <0>         0.1544
     60 H27        -2.0699    0.4948   -7.2204 H         1 <0>         0.1569
@<TRIPOS>BOND
     1    1    2 1
     2    1   34 1
     3    1   35 1
     4    1   36 1
     5    2    3 2
     6    2    4 1
     7    4    8 1
     8    4    5 2
     9    5    6 1
    10    6    7 1
    11    6   26 1
    12    7    8 1
    13    7   37 1
    14    7   38 1
    15    8    9 1
    16    8   20 1
    17    9   10 1
    18    9   39 1
    19    9   40 1
    20   10   11 1
    21   10   41 1
    22   10   42 1
    23   11   12 1
    24   11   43 1
    25   11   44 1
    26   12   19 1
    27   12   13 1
    28   13   14 1
    29   13   45 1
    30   13   46 1
    31   14   15 1
    32   14   47 1
    33   14   48 1
    34   15   16 2
    35   15   17 2
    36   15   18 1
    37   18   19 1
    38   18   49 1
    39   18   50 1
    40   19   51 1
    41   19   52 1
    42   20   25 ar
    43   20   21 ar
    44   21   22 ar
    45   21   53 1
    46   22   23 ar
    47   22   54 1
    48   23   24 ar
    49   23   55 1
    50   24   25 ar
    51   24   56 1
    52   25   57 1
    53   26   31 ar
    54   26   27 ar
    55   27   28 ar
    56   27   58 1
    57   28   29 ar
    58   28   33 1
    59   29   30 ar
    60   29   59 1
    61   30   31 ar
    62   30   60 1
    63   31   32 1
@<TRIPOS>MOLECULE
CHEMBL388313
   49    51     0     0     0
SMALL
USER_CHARGES

@<TRIPOS>ATOM
      1 C1         -1.8262   -1.7022   -2.1841 C.3       1 <0>        -0.1691
      2 C2         -2.1482   -0.4602   -1.3507 C.3       1 <0>         0.1066
      3 N1         -1.5028   -0.5706   -0.0402 N.am      1 <0>        -0.6079
      4 C3         -0.1407   -0.0660    0.1504 C.3       1 <0>         0.1052
      5 C4         -0.1901    1.4321    0.4572 C.3       1 <0>        -0.1727
      6 C5         -2.1622   -1.1364    0.9902 C.2       1 <0>         0.5815
      7 O1         -3.3242   -1.4735    0.8575 O.2       1 <0>        -0.5286
      8 C6         -1.4798   -1.3460    2.2705 C.2       1 <0>        -0.2216
      9 C7         -1.6200   -0.4026    3.3662 C.2       1 <0>        -0.0593
     10 C8         -0.9288   -0.7386    4.4765 C.2       1 <0>        -0.2220
     11 S1         -0.1260   -2.2594    4.0624 S.3       1 <0>         0.2869
     12 C9         -0.6781   -2.4559    2.4887 C.2       1 <0>         0.0321
     13 N2         -0.3954   -3.4884    1.6097 N.am      1 <0>        -0.6161
     14 C10         0.4122   -4.4972    1.9924 C.2       1 <0>         0.6047
     15 O2          0.8932   -4.5010    3.1104 O.2       1 <0>        -0.4865
     16 C11         0.7112   -5.5893    1.0625 C.2       1 <0>        -0.2719
     17 C12         1.5033   -6.7111    1.2572 C.2       1 <0>        -0.0485
     18 C13         1.5955   -7.5694    0.1880 C.2       1 <0>        -0.1870
     19 C14         0.9267   -7.2738   -0.9541 C.2       1 <0>        -0.2080
     20 S2          0.1455   -5.8266   -0.6113 S.3       1 <0>         0.2126
     21 C15        -0.8685    0.0239    5.7639 C.3       1 <0>        -0.0345
     22 C16        -1.4067    1.4400    5.5112 C.3       1 <0>        -0.1089
     23 C17        -2.7271    1.3384    4.7421 C.3       1 <0>        -0.0910
     24 C18        -2.4613    0.8641    3.3115 C.3       1 <0>        -0.0551
     25 C19        -3.4008    2.7116    4.7053 C.3       1 <0>        -0.1481
     26 H1         -2.3558   -1.6488   -3.1353 H         1 <0>         0.0702
     27 H2         -0.7528   -1.7480   -2.3680 H         1 <0>         0.0566
     28 H3         -2.1405   -2.5945   -1.6428 H         1 <0>         0.0556
     29 H4         -1.7788    0.4276   -1.8640 H         1 <0>         0.0788
     30 H5         -3.2273   -0.3809   -1.2188 H         1 <0>         0.0864
     31 H6          0.3285   -0.5919    0.9819 H         1 <0>         0.0797
     32 H7          0.4386   -0.2321   -0.7578 H         1 <0>         0.0768
     33 H8         -0.7586    1.9435   -0.3196 H         1 <0>         0.0592
     34 H9         -0.6709    1.5896    1.4226 H         1 <0>         0.0624
     35 H10         0.8241    1.8304    0.4870 H         1 <0>         0.0681
     36 H11        -0.7787   -3.4853    0.7186 H         1 <0>         0.4162
     37 H12         2.0153   -6.8980    2.1896 H         1 <0>         0.1549
     38 H13         2.1926   -8.4667    0.2561 H         1 <0>         0.1446
     39 H14         0.8987   -7.8416   -1.8724 H         1 <0>         0.1939
     40 H15        -1.4820   -0.4738    6.5148 H         1 <0>         0.0824
     41 H16         0.1636    0.0796    6.1099 H         1 <0>         0.0815
     42 H17        -1.5769    1.9413    6.4640 H         1 <0>         0.0742
     43 H18        -0.6842    2.0056    4.9229 H         1 <0>         0.0678
     44 H19        -3.3841    0.6275    5.2431 H         1 <0>         0.0748
     45 H20        -1.9227    1.6375    2.7639 H         1 <0>         0.0779
     46 H21        -3.4082    0.6530    2.8145 H         1 <0>         0.0757
     47 H22        -2.7439    3.4253    4.2081 H         1 <0>         0.0553
     48 H23        -4.3408    2.6406    4.1581 H         1 <0>         0.0557
     49 H24        -3.5976    3.0471    5.7236 H         1 <0>         0.0583
@<TRIPOS>BOND
     1    1    2 1
     2    1   26 1
     3    1   27 1
     4    1   28 1
     5    2    3 1
     6    2   29 1
     7    2   30 1
     8    3    4 1
     9    3    6 am
    10    4    5 1
    11    4   31 1
    12    4   32 1
    13    5   33 1
    14    5   34 1
    15    5   35 1
    16    6    7 2
    17    6    8 1
    18    8   12 2
    19    8    9 1
    20    9   24 1
    21    9   10 2
    22   10   11 1
    23   10   21 1
    24   11   12 1
    25   12   13 1
    26   13   14 am
    27   13   36 1
    28   14   15 2
    29   14   16 1
    30   16   20 1
    31   16   17 2
    32   17   18 1
    33   17   37 1
    34   18   19 2
    35   18   38 1
    36   19   20 1
    37   19   39 1
    38   21   22 1
    39   21   40 1
    40   21   41 1
    41   22   23 1
    42   22   42 1
    43   22   43 1
    44   23   24 1
    45   23   25 1
    46   23   44 1
    47   24   45 1
    48   24   46 1
    49   25   47 1
    50   25   48 1
    51   25   49 1
@<TRIPOS>MOLECULE
CHEMBL388313__1
   49    51     0     0     0
SMALL
USER_CHARGES

@<TRIPOS>ATOM
      1 C1         -1.9814   -1.6506   -2.2327 C.3       1 <0>        -0.1692
      2 C2         -2.2225   -0.4006   -1.3840 C.3       1 <0>         0.1074
      3 N1         -1.5333   -0.5425   -0.0990 N.am      1 <0>        -0.6083
      4 C3         -0.1648   -0.0435    0.0573 C.3       1 <0>         0.1052
      5 C4         -0.2017    1.4459    0.4055 C.3       1 <0>        -0.1732
      6 C5         -2.1584   -1.1321    0.9394 C.2       1 <0>         0.5812
      7 O1         -3.3246   -1.4654    0.8381 O.2       1 <0>        -0.5280
      8 C6         -1.4336   -1.3718    2.1908 C.2       1 <0>        -0.2217
      9 C7         -1.5306   -0.4510    3.3100 C.2       1 <0>        -0.0590
     10 C8         -0.8038   -0.8139    4.3887 C.2       1 <0>        -0.2224
     11 S1         -0.0234   -2.3290    3.9152 S.3       1 <0>         0.2870
     12 C9         -0.6312   -2.4901    2.3581 C.2       1 <0>         0.0322
     13 N2         -0.3857   -3.5059    1.4489 N.am      1 <0>        -0.6160
     14 C10         0.4289   -4.5264    1.7824 C.2       1 <0>         0.6047
     15 O2          0.9489   -4.5556    2.8824 O.2       1 <0>        -0.4865
     16 C11         0.6886   -5.6009    0.8206 C.2       1 <0>        -0.2719
     17 C12         1.4805   -6.7305    0.9645 C.2       1 <0>        -0.0485
     18 C13         1.5299   -7.5672   -0.1245 C.2       1 <0>        -0.1870
     19 C14         0.8231   -7.2449   -1.2360 C.2       1 <0>        -0.2080
     20 S2          0.0629   -5.8010   -0.8366 S.3       1 <0>         0.2126
     21 C15        -0.6974   -0.0805    5.6900 C.3       1 <0>        -0.0339
     22 C16        -1.8329    0.9515    5.7561 C.3       1 <0>        -0.1104
     23 C17        -1.8717    1.7308    4.4384 C.3       1 <0>        -0.0895
     24 C18        -2.3644    0.8218    3.3101 C.3       1 <0>        -0.0547
     25 C19        -2.8196    2.9233    4.5810 C.3       1 <0>        -0.1487
     26 H1         -2.5513   -1.5763   -3.1589 H         1 <0>         0.0701
     27 H2         -0.9196   -1.7327   -2.4651 H         1 <0>         0.0565
     28 H3         -2.3014   -2.5331   -1.6789 H         1 <0>         0.0560
     29 H4         -1.8376    0.4742   -1.9080 H         1 <0>         0.0794
     30 H5         -3.2919   -0.2794   -1.2113 H         1 <0>         0.0851
     31 H6          0.3325   -0.5915    0.8576 H         1 <0>         0.0797
     32 H7          0.3823   -0.1853   -0.8747 H         1 <0>         0.0768
     33 H8         -0.8003    1.9773   -0.3343 H         1 <0>         0.0590
     34 H9         -0.6439    1.5773    1.3931 H         1 <0>         0.0633
     35 H10         0.8129    1.8441    0.4059 H         1 <0>         0.0681
     36 H11        -0.8001   -3.4826    0.5722 H         1 <0>         0.4162
     37 H12         2.0238   -6.9390    1.8742 H         1 <0>         0.1548
     38 H13         2.1238   -8.4688   -0.0956 H         1 <0>         0.1446
     39 H14         0.7595   -7.7937   -2.1640 H         1 <0>         0.1939
     40 H15        -0.7917   -0.7841    6.5171 H         1 <0>         0.0814
     41 H16         0.2650    0.4280    5.7475 H         1 <0>         0.0823
     42 H17        -2.7834    0.4394    5.9055 H         1 <0>         0.0685
     43 H18        -1.6532    1.6397    6.5821 H         1 <0>         0.0743
     44 H19        -0.8708    2.0918    4.2017 H         1 <0>         0.0739
     45 H20        -2.2521    1.3326    2.3538 H         1 <0>         0.0734
     46 H21        -3.4128    0.5721    3.4731 H         1 <0>         0.0794
     47 H22        -2.4655    3.5755    5.3793 H         1 <0>         0.0583
     48 H23        -2.8481    3.4789    3.6436 H         1 <0>         0.0549
     49 H24        -3.8205    2.5651    4.8216 H         1 <0>         0.0563
@<TRIPOS>BOND
     1    1    2 1
     2    1   26 1
     3    1   27 1
     4    1   28 1
     5    2    3 1
     6    2   29 1
     7    2   30 1
     8    3    4 1
     9    3    6 am
    10    4    5 1
    11    4   31 1
    12    4   32 1
    13    5   33 1
    14    5   34 1
    15    5   35 1
    16    6    7 2
    17    6    8 1
    18    8   12 2
    19    8    9 1
    20    9   24 1
    21    9   10 2
    22   10   11 1
    23   10   21 1
    24   11   12 1
    25   12   13 1
    26   13   14 am
    27   13   36 1
    28   14   15 2
    29   14   16 1
    30   16   20 1
    31   16   17 2
    32   17   18 1
    33   17   37 1
    34   18   19 2
    35   18   38 1
    36   19   20 1
    37   19   39 1
    38   21   22 1
    39   21   40 1
    40   21   41 1
    41   22   23 1
    42   22   42 1
    43   22   43 1
    44   23   24 1
    45   23   25 1
    46   23   44 1
    47   24   45 1
    48   24   46 1
    49   25   47 1
    50   25   48 1
    51   25   49 1
@<TRIPOS>MOLECULE
CHEMBL395332
   54    56     0     0     0
SMALL
USER_CHARGES

@<TRIPOS>ATOM
      1 C1          0.2506    1.0926   -0.3794 C.3       1 <0>         0.1059
      2 N1          0.0648   -0.1947    0.2948 N.am      1 <0>        -0.6340
      3 C2          1.1919   -1.1210    0.4284 C.3       1 <0>         0.0644
      4 C3         -1.1430   -0.5268    0.7922 C.2       1 <0>         0.7302
      5 O1         -2.0958    0.2077    0.6162 O.2       1 <0>        -0.5584
      6 N2         -1.2946   -1.6731    1.4846 N.am      1 <0>        -0.6287
      7 C4         -0.2352   -2.5964    1.9133 C.3       1 <0>         0.1258
      8 C5         -0.9005   -3.7272    2.6526 C.2       1 <0>        -0.0999
      9 C6         -2.2069   -3.5362    2.6827 C.2       1 <0>        -0.1205
     10 C7         -2.5529   -2.2543    1.9722 C.3       1 <0>         0.2638
     11 C8         -3.4808   -2.5508    0.7924 C.3       1 <0>        -0.1189
     12 C9         -2.7478   -3.4271   -0.2252 C.3       1 <0>        -0.1496
     13 C10        -3.6334   -3.6284   -1.4565 C.3       1 <0>        -0.0089
     14 N3         -2.9296   -4.4698   -2.4336 N.4       1 <0>        -0.6379
     15 C11        -3.2221   -1.2999    2.9273 C.ar      1 <0>        -0.0888
     16 C12        -4.5804   -1.3984    3.1646 C.ar      1 <0>        -0.1113
     17 C13        -5.1943   -0.5229    4.0407 C.ar      1 <0>        -0.1174
     18 C14        -4.4499    0.4508    4.6799 C.ar      1 <0>        -0.1101
     19 C15        -3.0914    0.5488    4.4433 C.ar      1 <0>        -0.1155
     20 C16        -2.4768   -0.3294    3.5705 C.ar      1 <0>        -0.0845
     21 C17        -0.1966   -4.8789    3.2543 C.ar      1 <0>        -0.0509
     22 C18         0.3056   -5.8955    2.4413 C.ar      1 <0>        -0.1131
     23 C19         0.9631   -6.9693    3.0100 C.ar      1 <0>         0.0935
     24 C20         1.1239   -7.0382    4.3848 C.ar      1 <0>        -0.1129
     25 C21         0.6286   -6.0341    5.1960 C.ar      1 <0>        -0.1178
     26 C22        -0.0261   -4.9515    4.6391 C.ar      1 <0>         0.1100
     27 F1         -0.5050   -3.9685    5.4326 F         1 <0>        -0.1234
     28 F2          1.4500   -7.9546    2.2243 F         1 <0>        -0.1304
     29 H1          1.2848    1.1829   -0.7114 H         1 <0>         0.0798
     30 H2         -0.4142    1.1506   -1.2413 H         1 <0>         0.0617
     31 H3          0.0192    1.9021    0.3130 H         1 <0>         0.0632
     32 H4          1.4313   -1.2521    1.4836 H         1 <0>         0.0666
     33 H5          0.9240   -2.0842   -0.0058 H         1 <0>         0.0616
     34 H6          2.0589   -0.7158   -0.0933 H         1 <0>         0.0827
     35 H7          0.2940   -2.9834    1.0425 H         1 <0>         0.0914
     36 H8          0.4613   -2.0804    2.5741 H         1 <0>         0.0867
     37 H9         -2.9202   -4.1982    3.1510 H         1 <0>         0.1545
     38 H10        -4.3677   -3.0738    1.1502 H         1 <0>         0.0905
     39 H11        -3.7772   -1.6147    0.3191 H         1 <0>         0.0956
     40 H12        -1.8187   -2.9402   -0.5216 H         1 <0>         0.0855
     41 H13        -2.5237   -4.3950    0.2233 H         1 <0>         0.0898
     42 H14        -4.5625   -4.1154   -1.1602 H         1 <0>         0.1363
     43 H15        -3.8575   -2.6606   -1.9051 H         1 <0>         0.1347
     44 H16        -2.0696   -4.0191   -2.7080 H         1 <0>         0.4342
     45 H17        -2.7222   -5.3657   -2.0184 H         1 <0>         0.4346
     46 H18        -5.1620   -2.1592    2.6652 H         1 <0>         0.1198
     47 H19        -6.2556   -0.5995    4.2255 H         1 <0>         0.1251
     48 H20        -4.9296    1.1352    5.3638 H         1 <0>         0.1247
     49 H21        -2.5099    1.3097    4.9424 H         1 <0>         0.1223
     50 H22        -1.4148   -0.2553    3.3885 H         1 <0>         0.1105
     51 H23         0.1803   -5.8434    1.3699 H         1 <0>         0.1422
     52 H24         1.6381   -7.8801    4.8245 H         1 <0>         0.1523
     53 H25         0.7572   -6.0936    6.2666 H         1 <0>         0.1539
     54 H26        -3.5137   -4.6026   -3.2456 H         1 <0>         0.4392
@<TRIPOS>BOND
     1    1    2 1
     2    1   29 1
     3    1   30 1
     4    1   31 1
     5    2    3 1
     6    2    4 am
     7    3   32 1
     8    3   33 1
     9    3   34 1
    10    4    5 2
    11    4    6 am
    12    6   10 1
    13    6    7 1
    14    7    8 1
    15    7   35 1
    16    7   36 1
    17    8    9 2
    18    8   21 1
    19    9   10 1
    20    9   37 1
    21   10   11 1
    22   10   15 1
    23   11   12 1
    24   11   38 1
    25   11   39 1
    26   12   13 1
    27   12   40 1
    28   12   41 1
    29   13   14 1
    30   13   42 1
    31   13   43 1
    32   14   44 1
    33   14   45 1
    34   14   54 1
    35   15   20 ar
    36   15   16 ar
    37   16   17 ar
    38   16   46 1
    39   17   18 ar
    40   17   47 1
    41   18   19 ar
    42   18   48 1
    43   19   20 ar
    44   19   49 1
    45   20   50 1
    46   21   26 ar
    47   21   22 ar
    48   22   23 ar
    49   22   51 1
    50   23   24 ar
    51   23   28 1
    52   24   25 ar
    53   24   52 1
    54   25   26 ar
    55   25   53 1
    56   26   27 1
@<TRIPOS>MOLECULE
CHEMBL208864
   64    67     0     0     0
SMALL
USER_CHARGES

@<TRIPOS>ATOM
      1 C1         -0.8054    1.8954    0.7061 C.3       1 <0>        -0.1654
      2 C2         -0.5684    0.3877    0.5992 C.3       1 <0>         0.1307
      3 N1         -1.8520   -0.2974    0.4279 N.am      1 <0>        -0.7322
      4 C3         -1.8891   -1.6396    0.3108 C.2       1 <0>         0.7426
      5 O1         -0.8573   -2.2819    0.3474 O.2       1 <0>        -0.5600
      6 N2         -3.0700   -2.2698    0.1532 N.am      1 <0>        -0.4682
      7 C4         -3.2459   -3.7115   -0.0838 C.3       1 <0>         0.2029
      8 C5         -4.7752   -3.8772   -0.1848 C.3       1 <0>        -0.1209
      9 C6         -5.3071   -2.4755    0.0113 C.2       1 <0>         0.1223
     10 N3         -4.3240   -1.6638    0.1941 N.2       1 <0>        -0.2141
     11 C7         -6.7322   -2.0970    0.0008 C.ar      1 <0>        -0.0337
     12 C8         -7.7151   -3.0696   -0.1962 C.ar      1 <0>        -0.0999
     13 C9         -9.0480   -2.7079   -0.2048 C.ar      1 <0>         0.0927
     14 C10        -9.4113   -1.3833   -0.0185 C.ar      1 <0>        -0.1083
     15 C11        -8.4438   -0.4150    0.1771 C.ar      1 <0>        -0.1256
     16 C12        -7.1065   -0.7633    0.1939 C.ar      1 <0>         0.1253
     17 F1         -6.1627    0.1831    0.3908 F         1 <0>        -0.1144
     18 F2        -10.0000   -3.6473   -0.3958 F         1 <0>        -0.1295
     19 C13        -2.6929   -4.5217    1.0904 C.3       1 <0>        -0.1214
     20 C14        -3.3305   -4.0328    2.3925 C.3       1 <0>        -0.1135
     21 C15        -2.6780   -4.7454    3.5788 C.3       1 <0>        -0.1283
     22 C16        -3.3156   -4.2565    4.8809 C.3       1 <0>         0.1212
     23 N4         -2.6908   -4.9389    6.0168 N.am      1 <0>        -0.7171
     24 C17        -3.0953   -4.6650    7.2729 C.2       1 <0>         0.6034
     25 O2         -3.9790   -3.8513    7.4634 O.2       1 <0>        -0.5449
     26 C18        -2.4670   -5.3512    8.4152 C.2       1 <0>        -0.0669
     27 C19        -2.7792   -5.1767    9.7318 C.2       1 <0>         0.0387
     28 N5         -1.9675   -5.9965   10.4400 N.pl3     1 <0>        -0.5646
     29 H1         -1.9544   -6.0946   11.4050 H         1 <0>         0.4280
     30 C20        -1.1748   -6.6577    9.5569 C.2       1 <0>         0.1907
     31 N6         -1.4761   -6.2767    8.3492 N.2       1 <0>        -0.4662
     32 C21        -2.5817   -4.1220   -1.3727 C.ar      1 <0>        -0.0828
     33 C22        -2.0914   -5.4062   -1.5192 C.ar      1 <0>        -0.1029
     34 C23        -1.4821   -5.7827   -2.7015 C.ar      1 <0>        -0.1168
     35 C24        -1.3635   -4.8752   -3.7375 C.ar      1 <0>        -0.1146
     36 C25        -1.8545   -3.5913   -3.5914 C.ar      1 <0>        -0.1169
     37 C26        -2.4677   -3.2161   -2.4106 C.ar      1 <0>        -0.0994
     38 H2          0.1496    2.4052    0.8336 H         1 <0>         0.0767
     39 H3         -1.2893    2.2525   -0.2029 H         1 <0>         0.0623
     40 H4         -1.4452    2.1028    1.5639 H         1 <0>         0.0631
     41 H5          0.0714    0.1804   -0.2586 H         1 <0>         0.0672
     42 H6         -0.0844    0.0306    1.5082 H         1 <0>         0.0674
     43 H7         -2.6751    0.2149    0.3987 H         1 <0>         0.4070
     44 H8         -5.0544   -4.2581   -1.1671 H         1 <0>         0.1083
     45 H9         -5.1409   -4.5383    0.6009 H         1 <0>         0.1131
     46 H10        -7.4334   -4.1020   -0.3419 H         1 <0>         0.1521
     47 H11       -10.4551   -1.1061   -0.0266 H         1 <0>         0.1510
     48 H12        -8.7340    0.6152    0.3213 H         1 <0>         0.1529
     49 H13        -2.9257   -5.5766    0.9456 H         1 <0>         0.0826
     50 H14        -1.6120   -4.3921    1.1442 H         1 <0>         0.0929
     51 H15        -3.1819   -2.9572    2.4883 H         1 <0>         0.0647
     52 H16        -4.3980   -4.2524    2.3792 H         1 <0>         0.0653
     53 H17        -2.8265   -5.8210    3.4830 H         1 <0>         0.0723
     54 H18        -1.6104   -4.5258    3.5922 H         1 <0>         0.0722
     55 H19        -3.1670   -3.1810    4.9767 H         1 <0>         0.0664
     56 H20        -4.3831   -4.4761    4.8676 H         1 <0>         0.0681
     57 H21        -1.9860   -5.5878    5.8649 H         1 <0>         0.4092
     58 H22        -3.5298   -4.5115   10.1323 H         1 <0>         0.1917
     59 H23        -0.4193   -7.3852    9.8149 H         1 <0>         0.2164
     60 H24        -2.1841   -6.1152   -0.7098 H         1 <0>         0.1263
     61 H25        -1.0985   -6.7858   -2.8157 H         1 <0>         0.1250
     62 H26        -0.8868   -5.1692   -4.6610 H         1 <0>         0.1229
     63 H27        -1.7616   -2.8822   -4.4006 H         1 <0>         0.1213
     64 H28        -2.8546   -2.2141   -2.2978 H         1 <0>         0.1122
@<TRIPOS>BOND
     1    1    2 1
     2    1   38 1
     3    1   39 1
     4    1   40 1
     5    2    3 1
     6    2   41 1
     7    2   42 1
     8    3    4 am
     9    3   43 1
    10    4    5 2
    11    4    6 am
    12    6   10 1
    13    6    7 1
    14    7    8 1
    15    7   19 1
    16    7   32 1
    17    8    9 1
    18    8   44 1
    19    8   45 1
    20    9   10 2
    21    9   11 1
    22   11   16 ar
    23   11   12 ar
    24   12   13 ar
    25   12   46 1
    26   13   14 ar
    27   13   18 1
    28   14   15 ar
    29   14   47 1
    30   15   16 ar
    31   15   48 1
    32   16   17 1
    33   19   20 1
    34   19   49 1
    35   19   50 1
    36   20   21 1
    37   20   51 1
    38   20   52 1
    39   21   22 1
    40   21   53 1
    41   21   54 1
    42   22   23 1
    43   22   55 1
    44   22   56 1
    45   23   24 am
    46   23   57 1
    47   24   25 2
    48   24   26 1
    49   26   31 1
    50   26   27 2
    51   27   28 1
    52   27   58 1
    53   28   29 1
    54   28   30 1
    55   30   31 2
    56   30   59 1
    57   32   37 ar
    58   32   33 ar
    59   33   34 ar
    60   33   60 1
    61   34   35 ar
    62   34   61 1
    63   35   36 ar
    64   35   62 1
    65   36   37 ar
    66   36   63 1
    67   37   64 1
@<TRIPOS>MOLECULE
CHEMBL208864__1
   64    67     0     0     0
SMALL
USER_CHARGES

@<TRIPOS>ATOM
      1 C1          0.9675    1.9215    0.3426 C.3       1 <0>        -0.1657
      2 C2          0.7944    0.4084    0.1962 C.3       1 <0>         0.1308
      3 N1          1.3047   -0.2599    1.3958 N.am      1 <0>        -0.7319
      4 C3          1.2556   -1.6034    1.4912 C.2       1 <0>         0.7427
      5 O1          0.7877   -2.2608    0.5815 O.2       1 <0>        -0.5614
      6 N2          1.7251   -2.2182    2.5949 N.am      1 <0>        -0.4687
      7 C4          1.6439   -3.6614    2.8708 C.3       1 <0>         0.2031
      8 C5          2.3249   -3.8053    4.2463 C.3       1 <0>        -0.1211
      9 C6          2.7252   -2.3918    4.6040 C.2       1 <0>         0.1234
     10 N3          2.3719   -1.5920    3.6584 N.2       1 <0>        -0.2145
     11 C7          3.4189   -1.9914    5.8421 C.ar      1 <0>        -0.0350
     12 C8          3.7638   -2.9524    6.7952 C.ar      1 <0>        -0.1001
     13 C9          4.4134   -2.5702    7.9527 C.ar      1 <0>         0.0929
     14 C10         4.7230   -1.2366    8.1695 C.ar      1 <0>        -0.1076
     15 C11         4.3846   -0.2798    7.2304 C.ar      1 <0>        -0.1253
     16 C12         3.7396   -0.6485    6.0650 C.ar      1 <0>         0.1256
     17 F1          3.4147    0.2869    5.1459 F         1 <0>        -0.1143
     18 F2          4.7474   -3.4983    8.8758 F         1 <0>        -0.1292
     19 C13         2.4046   -4.4565    1.8076 C.3       1 <0>        -0.1210
     20 C14         3.8383   -3.9318    1.7071 C.3       1 <0>        -0.1143
     21 C15         4.5573   -4.6306    0.5514 C.3       1 <0>        -0.1285
     22 C16         5.9910   -4.1060    0.4509 C.3       1 <0>         0.1208
     23 N4          6.6794   -4.7751   -0.6557 N.am      1 <0>        -0.7310
     24 C17         7.9622   -4.4699   -0.9344 C.2       1 <0>         0.5956
     25 O2          8.5486   -3.6385   -0.2668 O.2       1 <0>        -0.5206
     26 C18         8.6519   -5.1402   -2.0429 C.2       1 <0>        -0.0964
     27 C19         9.9424   -4.9405   -2.4458 C.2       1 <0>         0.0755
     28 N5         10.1744   -5.7451   -3.4831 N.2       1 <0>        -0.4985
     29 H1          7.2290   -6.4669   -2.8540 H         1 <0>         0.4218
     30 C20         9.0980   -6.4389   -3.7522 C.2       1 <0>         0.2225
     31 N6          8.1278   -6.1033   -2.8833 N.pl3     1 <0>        -0.5568
     32 C21         0.2063   -4.1079    2.9413 C.ar      1 <0>        -0.0834
     33 C22        -0.1333   -5.4022    2.5945 C.ar      1 <0>        -0.1035
     34 C23        -1.4519   -5.8118    2.6592 C.ar      1 <0>        -0.1169
     35 C24        -2.4310   -4.9272    3.0713 C.ar      1 <0>        -0.1141
     36 C25        -2.0913   -3.6331    3.4190 C.ar      1 <0>        -0.1163
     37 C26        -0.7720   -3.2248    3.3583 C.ar      1 <0>        -0.0991
     38 H2          2.0247    2.1558    0.4672 H         1 <0>         0.0632
     39 H3          0.5878    2.4187   -0.5499 H         1 <0>         0.0771
     40 H4          0.4134    2.2678    1.2150 H         1 <0>         0.0626
     41 H5         -0.2628    0.1740    0.0716 H         1 <0>         0.0673
     42 H6          1.3485    0.0620   -0.6762 H         1 <0>         0.0670
     43 H7          1.6779    0.2645    2.1215 H         1 <0>         0.4073
     44 H8          1.6234   -4.2014    4.9806 H         1 <0>         0.1088
     45 H9          3.2045   -4.4447    4.1725 H         1 <0>         0.1127
     46 H10         3.5229   -3.9918    6.6277 H         1 <0>         0.1518
     47 H11         5.2307   -0.9434    9.0766 H         1 <0>         0.1514
     48 H12         4.6286    0.7575    7.4061 H         1 <0>         0.1533
     49 H13         2.4220   -5.5104    2.0853 H         1 <0>         0.0823
     50 H14         1.9077   -4.3428    0.8442 H         1 <0>         0.0925
     51 H15         3.8200   -2.8570    1.5268 H         1 <0>         0.0661
     52 H16         4.3657   -4.1349    2.6391 H         1 <0>         0.0666
     53 H17         4.5755   -5.7055    0.7317 H         1 <0>         0.0715
     54 H18         4.0298   -4.4275   -0.3806 H         1 <0>         0.0714
     55 H19         5.9727   -3.0311    0.2706 H         1 <0>         0.0702
     56 H20         6.5184   -4.3091    1.3829 H         1 <0>         0.0719
     57 H21         6.2119   -5.4378   -1.1878 H         1 <0>         0.3945
     58 H22        10.6483   -4.2535   -2.0029 H         1 <0>         0.1849
     59 H23         9.0046   -7.1676   -4.5439 H         1 <0>         0.2177
     60 H24         0.6317   -6.0934    2.2726 H         1 <0>         0.1255
     61 H25        -1.7174   -6.8228    2.3876 H         1 <0>         0.1250
     62 H26        -3.4614   -5.2469    3.1212 H         1 <0>         0.1233
     63 H27        -2.8563   -2.9419    3.7406 H         1 <0>         0.1218
     64 H28        -0.5061   -2.2149    3.6336 H         1 <0>         0.1125
@<TRIPOS>BOND
     1    1    2 1
     2    1   38 1
     3    1   39 1
     4    1   40 1
     5    2    3 1
     6    2   41 1
     7    2   42 1
     8    3    4 am
     9    3   43 1
    10    4    5 2
    11    4    6 am
    12    6   10 1
    13    6    7 1
    14    7    8 1
    15    7   19 1
    16    7   32 1
    17    8    9 1
    18    8   44 1
    19    8   45 1
    20    9   10 2
    21    9   11 1
    22   11   16 ar
    23   11   12 ar
    24   12   13 ar
    25   12   46 1
    26   13   14 ar
    27   13   18 1
    28   14   15 ar
    29   14   47 1
    30   15   16 ar
    31   15   48 1
    32   16   17 1
    33   19   20 1
    34   19   49 1
    35   19   50 1
    36   20   21 1
    37   20   51 1
    38   20   52 1
    39   21   22 1
    40   21   53 1
    41   21   54 1
    42   22   23 1
    43   22   55 1
    44   22   56 1
    45   23   24 am
    46   23   57 1
    47   24   25 2
    48   24   26 1
    49   26   27 2
    50   26   31 1
    51   27   28 1
    52   27   58 1
    53   28   30 2
    54   29   31 1
    55   30   59 1
    56   30   31 1
    57   32   37 ar
    58   32   33 ar
    59   33   34 ar
    60   33   60 1
    61   34   35 ar
    62   34   61 1
    63   35   36 ar
    64   35   62 1
    65   36   37 ar
    66   36   63 1
    67   37   64 1
@<TRIPOS>MOLECULE
CHEMBL208864__2
   64    67     0     0     0
SMALL
USER_CHARGES

@<TRIPOS>ATOM
      1 C1          0.4316    1.2522    0.1437 C.3       1 <0>        -0.1654
      2 C2          0.3254   -0.2739    0.1147 C.3       1 <0>         0.1308
      3 N1         -1.0863   -0.6649    0.0948 N.am      1 <0>        -0.7321
      4 C3         -1.4239   -1.9694    0.0678 C.2       1 <0>         0.7416
      5 O1         -0.5568   -2.8218    0.0599 O.2       1 <0>        -0.5593
      6 N2         -2.7227   -2.3291    0.0495 N.am      1 <0>        -0.4683
      7 C4         -3.2281   -3.7048   -0.0830 C.3       1 <0>         0.2028
      8 C5         -4.7595   -3.5325   -0.0441 C.3       1 <0>        -0.1211
      9 C6         -4.9543   -2.0410    0.1100 C.2       1 <0>         0.1217
     10 N3         -3.8061   -1.4598    0.1590 N.2       1 <0>        -0.2136
     11 C7         -6.2582   -1.3578    0.1968 C.ar      1 <0>        -0.0337
     12 C8         -7.4424   -2.0965    0.1435 C.ar      1 <0>        -0.1000
     13 C9         -8.6601   -1.4499    0.2254 C.ar      1 <0>         0.0927
     14 C10        -8.7088   -0.0712    0.3602 C.ar      1 <0>        -0.1083
     15 C11        -7.5405    0.6666    0.4137 C.ar      1 <0>        -0.1256
     16 C12        -6.3149    0.0325    0.3387 C.ar      1 <0>         0.1252
     17 F1         -5.1743    0.7542    0.3968 F         1 <0>        -0.1144
     18 F2         -9.8065   -2.1628    0.1736 F         1 <0>        -0.1295
     19 C13        -2.7885   -4.3140   -1.4159 C.3       1 <0>        -0.1211
     20 C14        -3.2180   -3.3963   -2.5623 C.3       1 <0>        -0.1138
     21 C15        -2.8609   -4.0491   -3.8992 C.3       1 <0>        -0.1288
     22 C16        -3.2904   -3.1314   -5.0457 C.3       1 <0>         0.1209
     23 N4         -2.9485   -3.7565   -6.3258 N.am      1 <0>        -0.7174
     24 C17        -3.2351   -3.1254   -7.4817 C.2       1 <0>         0.6036
     25 O2         -3.7776   -2.0370   -7.4620 O.2       1 <0>        -0.5446
     26 C18        -2.8912   -3.7539   -8.7690 C.2       1 <0>        -0.0672
     27 C19        -3.1166   -3.2296  -10.0081 C.2       1 <0>         0.0389
     28 N5         -2.6490   -4.1283  -10.9060 N.pl3     1 <0>        -0.5646
     29 H1         -2.6685   -4.0356  -11.8714 H         1 <0>         0.4281
     30 C20        -2.1473   -5.1833  -10.2126 C.2       1 <0>         0.1908
     31 N6         -2.2871   -4.9579   -8.9381 N.2       1 <0>        -0.4663
     32 C21        -2.7605   -4.5550    1.0701 C.ar      1 <0>        -0.0811
     33 C22        -2.5660   -5.9122    0.8939 C.ar      1 <0>        -0.1036
     34 C23        -2.1372   -6.6920    1.9517 C.ar      1 <0>        -0.1175
     35 C24        -1.9024   -6.1145    3.1855 C.ar      1 <0>        -0.1146
     36 C25        -2.0960   -4.7572    3.3615 C.ar      1 <0>        -0.1173
     37 C26        -2.5208   -3.9766    2.3026 C.ar      1 <0>        -0.0956
     38 H2          1.4819    1.5431    0.1585 H         1 <0>         0.0767
     39 H3         -0.0478    1.6667   -0.7432 H         1 <0>         0.0629
     40 H4         -0.0638    1.6339    1.0364 H         1 <0>         0.0626
     41 H5          0.8208   -0.6556   -0.7780 H         1 <0>         0.0675
     42 H6          0.8048   -0.6883    1.0015 H         1 <0>         0.0669
     43 H7         -1.7781    0.0151    0.1011 H         1 <0>         0.4071
     44 H8         -5.2074   -3.8826   -0.9741 H         1 <0>         0.1134
     45 H9         -5.1824   -4.0634    0.8088 H         1 <0>         0.1085
     46 H10        -7.4059   -3.1707    0.0382 H         1 <0>         0.1521
     47 H11        -9.6638    0.4292    0.4234 H         1 <0>         0.1510
     48 H12        -7.5859    1.7406    0.5185 H         1 <0>         0.1529
     49 H13        -1.7041   -4.4237   -1.4251 H         1 <0>         0.0895
     50 H14        -3.2537   -5.2919   -1.5395 H         1 <0>         0.0844
     51 H15        -4.2947   -3.2336   -2.5136 H         1 <0>         0.0662
     52 H16        -2.7017   -2.4403   -2.4754 H         1 <0>         0.0643
     53 H17        -1.7842   -4.2118   -3.9480 H         1 <0>         0.0720
     54 H18        -3.3772   -5.0051   -3.9861 H         1 <0>         0.0728
     55 H19        -4.3671   -2.9687   -4.9969 H         1 <0>         0.0683
     56 H20        -2.7742   -2.1754   -4.9588 H         1 <0>         0.0667
     57 H21        -2.5159   -4.6245   -6.3414 H         1 <0>         0.4092
     58 H22        -3.5796   -2.2795  -10.2301 H         1 <0>         0.1917
     59 H23        -1.7008   -6.0649  -10.6482 H         1 <0>         0.2164
     60 H24        -2.7495   -6.3633   -0.0700 H         1 <0>         0.1256
     61 H25        -1.9859   -7.7525    1.8142 H         1 <0>         0.1245
     62 H26        -1.5680   -6.7239    4.0121 H         1 <0>         0.1224
     63 H27        -1.9129   -4.3061    4.3255 H         1 <0>         0.1208
     64 H28        -2.6685   -2.9155    2.4391 H         1 <0>         0.1113
@<TRIPOS>BOND
     1    1    2 1
     2    1   38 1
     3    1   39 1
     4    1   40 1
     5    2    3 1
     6    2   41 1
     7    2   42 1
     8    3    4 am
     9    3   43 1
    10    4    5 2
    11    4    6 am
    12    6   10 1
    13    6    7 1
    14    7    8 1
    15    7   19 1
    16    7   32 1
    17    8    9 1
    18    8   44 1
    19    8   45 1
    20    9   10 2
    21    9   11 1
    22   11   16 ar
    23   11   12 ar
    24   12   13 ar
    25   12   46 1
    26   13   14 ar
    27   13   18 1
    28   14   15 ar
    29   14   47 1
    30   15   16 ar
    31   15   48 1
    32   16   17 1
    33   19   20 1
    34   19   49 1
    35   19   50 1
    36   20   21 1
    37   20   51 1
    38   20   52 1
    39   21   22 1
    40   21   53 1
    41   21   54 1
    42   22   23 1
    43   22   55 1
    44   22   56 1
    45   23   24 am
    46   23   57 1
    47   24   25 2
    48   24   26 1
    49   26   31 1
    50   26   27 2
    51   27   28 1
    52   27   58 1
    53   28   29 1
    54   28   30 1
    55   30   31 2
    56   30   59 1
    57   32   37 ar
    58   32   33 ar
    59   33   34 ar
    60   33   60 1
    61   34   35 ar
    62   34   61 1
    63   35   36 ar
    64   35   62 1
    65   36   37 ar
    66   36   63 1
    67   37   64 1
@<TRIPOS>MOLECULE
CHEMBL208864__3
   64    67     0     0     0
SMALL
USER_CHARGES

@<TRIPOS>ATOM
      1 C1         -0.1214    1.2479   -0.4452 C.3       1 <0>        -0.1657
      2 C2         -0.0552   -0.2766   -0.3334 C.3       1 <0>         0.1308
      3 N1          0.6429   -0.6459    0.9005 N.am      1 <0>        -0.7318
      4 C3          0.8210   -1.9452    1.2110 C.2       1 <0>         0.7415
      5 O1          0.4022   -2.8110    0.4669 O.2       1 <0>        -0.5602
      6 N2          1.4632   -2.2850    2.3462 N.am      1 <0>        -0.4687
      7 C4          1.6356   -3.6550    2.8549 C.3       1 <0>         0.2030
      8 C5          2.4302   -3.4581    4.1611 C.3       1 <0>        -0.1212
      9 C6          2.6235   -1.9610    4.2476 C.2       1 <0>         0.1227
     10 N3          2.0775   -1.3969    3.2267 N.2       1 <0>        -0.2138
     11 C7          3.3331   -1.2559    5.3310 C.ar      1 <0>        -0.0350
     12 C8          3.8973   -1.9770    6.3858 C.ar      1 <0>        -0.1002
     13 C9          4.5605   -1.3100    7.3972 C.ar      1 <0>         0.0929
     14 C10         4.6669    0.0717    7.3671 C.ar      1 <0>        -0.1076
     15 C11         4.1109    0.7921    6.3261 C.ar      1 <0>        -0.1253
     16 C12         3.4494    0.1376    5.3043 C.ar      1 <0>         0.1256
     17 F1          2.9116    0.8425    4.2850 F         1 <0>        -0.1143
     18 F2          5.1064   -2.0059    8.4185 F         1 <0>        -0.1292
     19 C13         0.2771   -4.2974    3.1427 C.3       1 <0>        -0.1207
     20 C14        -0.5239   -3.3963    4.0847 C.3       1 <0>        -0.1146
     21 C15        -1.8435   -4.0812    4.4461 C.3       1 <0>        -0.1289
     22 C16        -2.6445   -3.1801    5.3880 C.3       1 <0>         0.1206
     23 N4         -3.9080   -3.8358    5.7341 N.am      1 <0>        -0.7312
     24 C17        -4.7814   -3.2236    6.5580 C.2       1 <0>         0.5957
     25 O2         -4.5205   -2.1262    7.0144 O.2       1 <0>        -0.5204
     26 C18        -6.0472   -3.8805    6.9046 C.2       1 <0>        -0.0966
     27 C19        -7.0280   -3.3908    7.7207 C.2       1 <0>         0.0757
     28 N5         -8.0061   -4.2955    7.7699 N.2       1 <0>        -0.4984
     29 H1         -6.0163   -5.7156    5.8683 H         1 <0>         0.4218
     30 C20        -7.6908   -5.3264    7.0282 C.2       1 <0>         0.2227
     31 N6         -6.4873   -5.1145    6.4663 N.pl3     1 <0>        -0.5569
     32 C21         2.4217   -4.4891    1.8765 C.ar      1 <0>        -0.0817
     33 C22         2.2060   -5.8524    1.8008 C.ar      1 <0>        -0.1042
     34 C23         2.9271   -6.6176    0.9033 C.ar      1 <0>        -0.1176
     35 C24         3.8635   -6.0193    0.0811 C.ar      1 <0>        -0.1140
     36 C25         4.0785   -4.6558    0.1561 C.ar      1 <0>        -0.1167
     37 C26         3.3544   -3.8901    1.0506 C.ar      1 <0>        -0.0952
     38 H2          0.8895    1.6551   -0.4638 H         1 <0>         0.0629
     39 H3         -0.6408    1.5227   -1.3632 H         1 <0>         0.0770
     40 H4         -0.6601    1.6520    0.4119 H         1 <0>         0.0630
     41 H5         -1.0661   -0.6838   -0.3147 H         1 <0>         0.0672
     42 H6          0.4836   -0.6806   -1.1905 H         1 <0>         0.0672
     43 H7          0.9769    0.0448    1.4941 H         1 <0>         0.4073
     44 H8          1.8576   -3.8197    5.0152 H         1 <0>         0.1128
     45 H9          3.3933   -3.9653    4.1029 H         1 <0>         0.1089
     46 H10         3.8148   -3.0536    6.4107 H         1 <0>         0.1518
     47 H11         5.1863    0.5881    8.1609 H         1 <0>         0.1514
     48 H12         4.1973    1.8685    6.3092 H         1 <0>         0.1533
     49 H13        -0.2700   -4.4242    2.2086 H         1 <0>         0.0893
     50 H14         0.4272   -5.2703    3.6108 H         1 <0>         0.0839
     51 H15         0.0523   -3.2159    4.9922 H         1 <0>         0.0675
     52 H16        -0.7306   -2.4469    3.5908 H         1 <0>         0.0656
     53 H17        -2.4196   -4.2616    3.5386 H         1 <0>         0.0712
     54 H18        -1.6367   -5.0306    4.9400 H         1 <0>         0.0721
     55 H19        -2.0683   -2.9996    6.2955 H         1 <0>         0.0721
     56 H20        -2.8512   -2.2306    4.8941 H         1 <0>         0.0706
     57 H21        -4.1160   -4.7106    5.3702 H         1 <0>         0.3945
     58 H22        -7.0134   -2.4407    8.2340 H         1 <0>         0.1850
     59 H23        -8.3014   -6.2059    6.8869 H         1 <0>         0.2177
     60 H24         1.4744   -6.3199    2.4432 H         1 <0>         0.1247
     61 H25         2.7590   -7.6828    0.8448 H         1 <0>         0.1245
     62 H26         4.4274   -6.6172   -0.6196 H         1 <0>         0.1229
     63 H27         4.8104   -4.1884   -0.4860 H         1 <0>         0.1213
     64 H28         3.5197   -2.8243    1.1066 H         1 <0>         0.1116
@<TRIPOS>BOND
     1    1    2 1
     2    1   38 1
     3    1   39 1
     4    1   40 1
     5    2    3 1
     6    2   41 1
     7    2   42 1
     8    3    4 am
     9    3   43 1
    10    4    5 2
    11    4    6 am
    12    6   10 1
    13    6    7 1
    14    7    8 1
    15    7   19 1
    16    7   32 1
    17    8    9 1
    18    8   44 1
    19    8   45 1
    20    9   10 2
    21    9   11 1
    22   11   16 ar
    23   11   12 ar
    24   12   13 ar
    25   12   46 1
    26   13   14 ar
    27   13   18 1
    28   14   15 ar
    29   14   47 1
    30   15   16 ar
    31   15   48 1
    32   16   17 1
    33   19   20 1
    34   19   49 1
    35   19   50 1
    36   20   21 1
    37   20   51 1
    38   20   52 1
    39   21   22 1
    40   21   53 1
    41   21   54 1
    42   22   23 1
    43   22   55 1
    44   22   56 1
    45   23   24 am
    46   23   57 1
    47   24   25 2
    48   24   26 1
    49   26   27 2
    50   26   31 1
    51   27   28 1
    52   27   58 1
    53   28   30 2
    54   29   31 1
    55   30   59 1
    56   30   31 1
    57   32   37 ar
    58   32   33 ar
    59   33   34 ar
    60   33   60 1
    61   34   35 ar
    62   34   61 1
    63   35   36 ar
    64   35   62 1
    65   36   37 ar
    66   36   63 1
    67   37   64 1
@<TRIPOS>MOLECULE
CHEMBL449439
   33    34     0     0     0
SMALL
USER_CHARGES

@<TRIPOS>ATOM
      1 C1         -0.0187    1.5258    0.0104 C.3       1 <0>        -0.1401
      2 C2          0.0021   -0.0041    0.0020 C.3       1 <0>        -0.0308
      3 C3          0.7421   -0.5109    1.2415 C.3       1 <0>        -0.1401
      4 C4         -1.4333   -0.5336    0.0129 C.3       1 <0>        -0.1459
      5 C5          0.7074   -0.4901   -1.2379 C.ar      1 <0>        -0.0681
      6 C6          0.0343   -1.2849   -2.1484 C.ar      1 <0>        -0.1116
      7 C7          0.6755   -1.7345   -3.2884 C.ar      1 <0>        -0.1158
      8 C8          1.9920   -1.3923   -3.5234 C.ar      1 <0>        -0.1069
      9 C9          2.6747   -0.5920   -2.6097 C.ar      1 <0>        -0.0560
     10 C10         2.0218   -0.1368   -1.4656 C.ar      1 <0>        -0.0967
     11 C11         4.0898   -0.2209   -2.8568 C.ar      1 <0>         0.0037
     12 C12         4.7921    0.5761   -1.9485 C.ar      1 <0>        -0.1684
     13 C13         6.1068    0.8973   -2.2168 C.ar      1 <0>         0.1038
     14 N1          6.6999    0.4632   -3.3123 N.ar      1 <0>        -0.4883
     15 C14         6.0730   -0.2909   -4.1949 C.ar      1 <0>         0.1038
     16 C15         4.7587   -0.6636   -4.0014 C.ar      1 <0>        -0.1683
     17 H1          1.0039    1.9031    0.0027 H         1 <0>         0.0565
     18 H2         -0.5459    1.8868   -0.8726 H         1 <0>         0.0572
     19 H3         -0.5289    1.8773    0.9072 H         1 <0>         0.0609
     20 H4          0.2319   -0.1594    2.1383 H         1 <0>         0.0609
     21 H5          0.7568   -1.6008    1.2356 H         1 <0>         0.0572
     22 H6          1.7647   -0.1336    1.2338 H         1 <0>         0.0565
     23 H7         -1.9605   -0.1726   -0.8702 H         1 <0>         0.0595
     24 H8         -1.4185   -1.6235    0.0069 H         1 <0>         0.0594
     25 H9         -1.9435   -0.1821    0.9097 H         1 <0>         0.0605
     26 H10        -0.9955   -1.5556   -1.9682 H         1 <0>         0.1297
     27 H11         0.1453   -2.3547   -3.9959 H         1 <0>         0.1267
     28 H12         2.4919   -1.7445   -4.4136 H         1 <0>         0.1257
     29 H13         2.5450    0.4873   -0.7563 H         1 <0>         0.1253
     30 H14         4.3126    0.9355   -1.0500 H         1 <0>         0.1360
     31 H15         6.6577    1.5126   -1.5209 H         1 <0>         0.1580
     32 H16         6.5968   -0.6240   -5.0787 H         1 <0>         0.1582
     33 H17         4.2529   -1.2847   -4.7259 H         1 <0>         0.1373
@<TRIPOS>BOND
     1    1    2 1
     2    1   17 1
     3    1   18 1
     4    1   19 1
     5    2    3 1
     6    2    4 1
     7    2    5 1
     8    3   20 1
     9    3   21 1
    10    3   22 1
    11    4   23 1
    12    4   24 1
    13    4   25 1
    14    5   10 ar
    15    5    6 ar
    16    6    7 ar
    17    6   26 1
    18    7    8 ar
    19    7   27 1
    20    8    9 ar
    21    8   28 1
    22    9   10 ar
    23    9   11 1
    24   10   29 1
    25   11   16 ar
    26   11   12 ar
    27   12   13 ar
    28   12   30 1
    29   13   14 ar
    30   13   31 1
    31   14   15 ar
    32   15   16 ar
    33   15   32 1
    34   16   33 1
@<TRIPOS>MOLECULE
CHEMBL443490
   68    71     0     0     0
SMALL
USER_CHARGES

@<TRIPOS>ATOM
      1 C1          0.9809    0.2896   -1.2213 C.3       1 <0>        -0.1172
      2 C2          0.9355   -1.1701   -0.8492 C.ar      1 <0>        -0.0846
      3 C3          1.0997   -2.1365   -1.8249 C.ar      1 <0>        -0.0699
      4 C4          1.0595   -3.4773   -1.4891 C.ar      1 <0>        -0.1374
      5 C5          0.8543   -3.8563   -0.1751 C.ar      1 <0>         0.1145
      6 C6          0.6888   -2.8858    0.8086 C.ar      1 <0>         0.1130
      7 C7          0.7358   -1.5401    0.4662 C.ar      1 <0>        -0.0790
      8 N1          0.4809   -3.2634    2.1367 N.pl3     1 <0>        -0.3909
      9 C8          1.5396   -3.3722    3.1532 C.3       1 <0>         0.0667
     10 C9          0.7626   -3.8161    4.4127 C.3       1 <0>         0.0119
     11 C10        -0.6615   -3.8920    3.8961 C.2       1 <0>        -0.0961
     12 N2         -0.6556   -3.5574    2.6405 N.2       1 <0>        -0.1184
     13 C11        -1.7944   -4.2565    4.6481 C.2       1 <0>         0.4362
     14 O1         -1.6873   -4.4826    5.8369 O.2       1 <0>        -0.4586
     15 C12        -3.1400   -4.3661    3.9785 C.3       1 <0>        -0.2000
     16 C13         0.8851   -2.7735    5.5257 C.3       1 <0>        -0.1004
     17 C14         0.2937   -1.4457    5.0480 C.3       1 <0>        -0.1527
     18 C15         0.3183   -0.4342    6.1957 C.3       1 <0>        -0.0084
     19 N3         -0.2495    0.8406    5.7371 N.4       1 <0>        -0.3844
     20 C16         0.6077    1.4070    4.6881 C.3       1 <0>        -0.0245
     21 C17        -0.0423    2.6770    4.1290 C.3       1 <0>         0.0884
     22 N4         -0.3172    3.5915    5.2481 N.am      1 <0>        -0.6374
     23 C18        -1.0324    3.0596    6.4184 C.3       1 <0>         0.0849
     24 C19        -0.3357    1.7716    6.8693 C.3       1 <0>        -0.0218
     25 C20         0.0755    4.8800    5.2026 C.2       1 <0>         0.5216
     26 O2          0.6645    5.3004    4.2293 O.2       1 <0>        -0.5135
     27 C21        -0.2173    5.7983    6.3610 C.3       1 <0>        -0.1801
     28 C22         1.2350   -5.1659    4.8883 C.ar      1 <0>        -0.0755
     29 C23         1.7208   -5.3146    6.1739 C.ar      1 <0>        -0.1054
     30 C24         2.1540   -6.5527    6.6101 C.ar      1 <0>        -0.1154
     31 C25         2.1011   -7.6422    5.7608 C.ar      1 <0>        -0.1109
     32 C26         1.6144   -7.4936    4.4755 C.ar      1 <0>        -0.1129
     33 C27         1.1772   -6.2564    4.0407 C.ar      1 <0>        -0.1083
     34 F1          0.8141   -5.1662    0.1531 F         1 <0>        -0.1261
     35 H1          2.0074    0.6499   -1.1545 H         1 <0>         0.0784
     36 H2          0.6170    0.4161   -2.2410 H         1 <0>         0.0773
     37 H3          0.3509    0.8586   -0.5376 H         1 <0>         0.0681
     38 H4          1.2594   -1.8432   -2.8520 H         1 <0>         0.1450
     39 H5          1.1881   -4.2291   -2.2537 H         1 <0>         0.1497
     40 H6          0.6119   -0.7840    1.2274 H         1 <0>         0.1305
     41 H7          2.2735   -4.1256    2.8669 H         1 <0>         0.0966
     42 H8          2.0191   -2.4069    3.3158 H         1 <0>         0.0919
     43 H9         -3.0393   -4.1285    2.9195 H         1 <0>         0.0859
     44 H10        -3.5188   -5.3822    4.0884 H         1 <0>         0.0960
     45 H11        -3.8352   -3.6669    4.4432 H         1 <0>         0.0916
     46 H12         0.3426   -3.1169    6.4066 H         1 <0>         0.1007
     47 H13         1.9361   -2.6332    5.7781 H         1 <0>         0.0855
     48 H14         0.8835   -1.0641    4.2147 H         1 <0>         0.0832
     49 H15        -0.7351   -1.6020    4.7235 H         1 <0>         0.0902
     50 H16        -0.2716   -0.8158    7.0291 H         1 <0>         0.1376
     51 H17         1.3471   -0.2779    6.5202 H         1 <0>         0.1327
     52 H18         1.5828    1.6528    5.1088 H         1 <0>         0.1351
     53 H19         0.7307    0.6787    3.8865 H         1 <0>         0.1403
     54 H20         0.6365    3.1556    3.4232 H         1 <0>         0.1355
     55 H21        -0.9756    2.4206    3.6278 H         1 <0>         0.0942
     56 H22        -1.0082    3.7912    7.2261 H         1 <0>         0.1338
     57 H23        -2.0657    2.8418    6.1483 H         1 <0>         0.0988
     58 H24        -0.9079    1.3118    7.6751 H         1 <0>         0.1468
     59 H25         0.6679    2.0063    7.2241 H         1 <0>         0.1351
     60 H26         0.2580    5.4098    7.2617 H         1 <0>         0.0939
     61 H27         0.1731    6.7926    6.1442 H         1 <0>         0.1045
     62 H28        -1.2947    5.8567    6.5151 H         1 <0>         0.0965
     63 H29         1.7621   -4.4635    6.8374 H         1 <0>         0.1228
     64 H30         2.5342   -6.6688    7.6143 H         1 <0>         0.1258
     65 H31         2.4403   -8.6093    6.1014 H         1 <0>         0.1261
     66 H32         1.5734   -8.3447    3.8119 H         1 <0>         0.1251
     67 H33         0.7935   -6.1411    3.0378 H         1 <0>         0.1141
     68 H34        -1.1731    0.6810    5.3635 H         1 <0>         0.4236
@<TRIPOS>BOND
     1    1    2 1
     2    1   35 1
     3    1   36 1
     4    1   37 1
     5    2    7 ar
     6    2    3 ar
     7    3    4 ar
     8    3   38 1
     9    4    5 ar
    10    4   39 1
    11    5    6 ar
    12    5   34 1
    13    6    7 ar
    14    6    8 1
    15    7   40 1
    16    8   12 1
    17    8    9 1
    18    9   10 1
    19    9   41 1
    20    9   42 1
    21   10   11 1
    22   10   16 1
    23   10   28 1
    24   11   12 2
    25   11   13 1
    26   13   14 2
    27   13   15 1
    28   15   43 1
    29   15   44 1
    30   15   45 1
    31   16   17 1
    32   16   46 1
    33   16   47 1
    34   17   18 1
    35   17   48 1
    36   17   49 1
    37   18   19 1
    38   18   50 1
    39   18   51 1
    40   19   24 1
    41   19   20 1
    42   19   68 1
    43   20   21 1
    44   20   52 1
    45   20   53 1
    46   21   22 1
    47   21   54 1
    48   21   55 1
    49   22   23 1
    50   22   25 am
    51   23   24 1
    52   23   56 1
    53   23   57 1
    54   24   58 1
    55   24   59 1
    56   25   26 2
    57   25   27 1
    58   27   60 1
    59   27   61 1
    60   27   62 1
    61   28   33 ar
    62   28   29 ar
    63   29   30 ar
    64   29   63 1
    65   30   31 ar
    66   30   64 1
    67   31   32 ar
    68   31   65 1
    69   32   33 ar
    70   32   66 1
    71   33   67 1
@<TRIPOS>MOLECULE
CHEMBL443490__1
   67    70     0     0     0
SMALL
USER_CHARGES

@<TRIPOS>ATOM
      1 C1          0.9809    0.2895   -1.2213 C.3       1 <0>        -0.1171
      2 C2          0.9356   -1.1702   -0.8492 C.ar      1 <0>        -0.0849
      3 C3          1.0998   -2.1367   -1.8249 C.ar      1 <0>        -0.0759
      4 C4          1.0596   -3.4774   -1.4890 C.ar      1 <0>        -0.1426
      5 C5          0.8544   -3.8564   -0.1749 C.ar      1 <0>         0.1101
      6 C6          0.6889   -2.8858    0.8087 C.ar      1 <0>         0.1235
      7 C7          0.7359   -1.5401    0.4662 C.ar      1 <0>        -0.0754
      8 N1          0.4810   -3.2634    2.1368 N.pl3     1 <0>        -0.3961
      9 C8          1.5397   -3.3721    3.1533 C.3       1 <0>         0.0714
     10 C9          0.7627   -3.8160    4.4129 C.3       1 <0>         0.0078
     11 C10        -0.6614   -3.8919    3.8962 C.2       1 <0>        -0.0801
     12 N2         -0.6555   -3.5574    2.6406 N.2       1 <0>        -0.1249
     13 C11        -1.7943   -4.2564    4.6483 C.2       1 <0>         0.4382
     14 O1         -1.6872   -4.4825    5.8370 O.2       1 <0>        -0.4594
     15 C12        -3.1399   -4.3661    3.9786 C.3       1 <0>        -0.1969
     16 C13         0.8851   -2.7734    5.5258 C.3       1 <0>        -0.1033
     17 C14         0.2937   -1.4456    5.0481 C.3       1 <0>        -0.1140
     18 C15         0.3183   -0.4340    6.1957 C.3       1 <0>         0.0584
     19 N3         -0.2496    0.8408    5.7370 N.3       1 <0>        -0.5363
     20 C16         0.5968    1.4527    4.7040 C.3       1 <0>         0.0405
     21 C17        -0.1159    2.6797    4.1253 C.3       1 <0>         0.1158
     22 N4         -0.4859    3.5715    5.2348 N.am      1 <0>        -0.6173
     23 C18        -1.2180    2.9979    6.3742 C.3       1 <0>         0.1113
     24 C19        -0.4620    1.7584    6.8643 C.3       1 <0>         0.0398
     25 C20        -0.1631    4.8798    5.2079 C.2       1 <0>         0.5126
     26 O2          0.4405    5.3360    4.2600 O.2       1 <0>        -0.5462
     27 C21        -0.5522    5.7756    6.3555 C.3       1 <0>        -0.1748
     28 C22         1.2351   -5.1658    4.8884 C.ar      1 <0>        -0.0649
     29 C23         1.7209   -5.3145    6.1741 C.ar      1 <0>        -0.1026
     30 C24         2.1542   -6.5525    6.6103 C.ar      1 <0>        -0.1178
     31 C25         2.1012   -7.6420    5.7611 C.ar      1 <0>        -0.1181
     32 C26         1.6146   -7.4935    4.4758 C.ar      1 <0>        -0.1175
     33 C27         1.1773   -6.2563    4.0410 C.ar      1 <0>        -0.1100
     34 F1          0.8142   -5.1663    0.1533 F         1 <0>        -0.1289
     35 H1          2.0075    0.6498   -1.1545 H         1 <0>         0.0769
     36 H2          0.6171    0.4159   -2.2410 H         1 <0>         0.0738
     37 H3          0.3509    0.8585   -0.5376 H         1 <0>         0.0717
     38 H4          1.2595   -1.8434   -2.8519 H         1 <0>         0.1411
     39 H5          1.1882   -4.2292   -2.2536 H         1 <0>         0.1454
     40 H6          0.6120   -0.7841    1.2275 H         1 <0>         0.1375
     41 H7          2.2736   -4.1255    2.8671 H         1 <0>         0.0897
     42 H8          2.0192   -2.4069    3.3159 H         1 <0>         0.0929
     43 H9         -3.0392   -4.1285    2.9196 H         1 <0>         0.0846
     44 H10        -3.5187   -5.3822    4.0886 H         1 <0>         0.0908
     45 H11        -3.8351   -3.6669    4.4433 H         1 <0>         0.0921
     46 H12         0.3427   -3.1167    6.4067 H         1 <0>         0.0893
     47 H13         1.9362   -2.6330    5.7782 H         1 <0>         0.0709
     48 H14         0.8836   -1.0641    4.2147 H         1 <0>         0.0578
     49 H15        -0.7351   -1.6020    4.7236 H         1 <0>         0.0746
     50 H16        -0.2716   -0.8156    7.0291 H         1 <0>         0.0797
     51 H17         1.3471   -0.2777    6.5202 H         1 <0>         0.0348
     52 H18         1.5458    1.7576    5.1449 H         1 <0>         0.0381
     53 H19         0.7802    0.7300    3.9089 H         1 <0>         0.0866
     54 H20         0.5529    3.2032    3.4421 H         1 <0>         0.0947
     55 H21        -1.0138    2.3647    3.5936 H         1 <0>         0.0746
     56 H22        -1.2779    3.7318    7.1778 H         1 <0>         0.0916
     57 H23        -2.2219    2.7135    6.0586 H         1 <0>         0.0800
     58 H24        -1.0464    1.2574    7.6360 H         1 <0>         0.0906
     59 H25         0.5018    2.0590    7.2751 H         1 <0>         0.0394
     60 H26        -0.0928    5.4099    7.2738 H         1 <0>         0.0877
     61 H27        -0.2086    6.7908    6.1567 H         1 <0>         0.0932
     62 H28        -1.6365    5.7742    6.4661 H         1 <0>         0.0894
     63 H29         1.7622   -4.4633    6.8375 H         1 <0>         0.1261
     64 H30         2.5344   -6.6685    7.6145 H         1 <0>         0.1230
     65 H31         2.4404   -8.6091    6.1017 H         1 <0>         0.1217
     66 H32         1.5736   -8.3446    3.8122 H         1 <0>         0.1212
     67 H33         0.7937   -6.1411    3.0380 H         1 <0>         0.1140
@<TRIPOS>BOND
     1    1    2 1
     2    1   35 1
     3    1   36 1
     4    1   37 1
     5    2    7 ar
     6    2    3 ar
     7    3    4 ar
     8    3   38 1
     9    4    5 ar
    10    4   39 1
    11    5    6 ar
    12    5   34 1
    13    6    7 ar
    14    6    8 1
    15    7   40 1
    16    8   12 1
    17    8    9 1
    18    9   10 1
    19    9   41 1
    20    9   42 1
    21   10   11 1
    22   10   16 1
    23   10   28 1
    24   11   12 2
    25   11   13 1
    26   13   14 2
    27   13   15 1
    28   15   43 1
    29   15   44 1
    30   15   45 1
    31   16   17 1
    32   16   46 1
    33   16   47 1
    34   17   18 1
    35   17   48 1
    36   17   49 1
    37   18   19 1
    38   18   50 1
    39   18   51 1
    40   19   24 1
    41   19   20 1
    42   20   21 1
    43   20   52 1
    44   20   53 1
    45   21   22 1
    46   21   54 1
    47   21   55 1
    48   22   23 1
    49   22   25 am
    50   23   24 1
    51   23   56 1
    52   23   57 1
    53   24   58 1
    54   24   59 1
    55   25   26 2
    56   25   27 1
    57   27   60 1
    58   27   61 1
    59   27   62 1
    60   28   33 ar
    61   28   29 ar
    62   29   30 ar
    63   29   63 1
    64   30   31 ar
    65   30   64 1
    66   31   32 ar
    67   31   65 1
    68   32   33 ar
    69   32   66 1
    70   33   67 1
@<TRIPOS>MOLECULE
CHEMBL443490__2
   68    71     0     0     0
SMALL
USER_CHARGES

@<TRIPOS>ATOM
      1 C1         -0.2048    0.9747   -0.5338 C.3       1 <0>        -0.1220
      2 C2         -0.1144   -0.5219   -0.3821 C.ar      1 <0>        -0.0756
      3 C3         -0.0798   -1.3287   -1.5050 C.ar      1 <0>        -0.0722
      4 C4          0.0036   -2.7024   -1.3717 C.ar      1 <0>        -0.1389
      5 C5          0.0524   -3.2745   -0.1135 C.ar      1 <0>         0.1057
      6 C6          0.0177   -2.4649    1.0179 C.ar      1 <0>         0.1176
      7 C7         -0.0604   -1.0849    0.8778 C.ar      1 <0>        -0.0760
      8 N1          0.0662   -3.0378    2.2904 N.pl3     1 <0>        -0.3917
      9 C8          1.2920   -3.2098    3.0865 C.3       1 <0>         0.0680
     10 C9          0.7721   -3.8799    4.3779 C.3       1 <0>         0.0109
     11 C10        -0.7158   -3.9864    4.1027 C.2       1 <0>        -0.0960
     12 N2         -0.9479   -3.4808    2.9284 N.2       1 <0>        -0.1186
     13 C11        -1.6791   -4.5334    4.9714 C.2       1 <0>         0.4330
     14 O1         -1.3561   -4.8987    6.0839 O.2       1 <0>        -0.4545
     15 C12        -3.1112   -4.6656    4.5211 C.3       1 <0>        -0.2003
     16 C13         1.3939   -5.2656    4.5626 C.3       1 <0>        -0.0996
     17 C14         0.9646   -6.1751    3.4096 C.3       1 <0>        -0.1532
     18 C15         1.6908   -7.5172    3.5210 C.3       1 <0>        -0.0081
     19 N3          1.2786   -8.3903    2.4139 N.4       1 <0>        -0.3841
     20 C16        -0.1512   -8.6989    2.5425 C.3       1 <0>        -0.0248
     21 C17        -0.6080   -9.5141    1.3282 C.3       1 <0>         0.0890
     22 N4          0.2596  -10.6959    1.2068 N.am      1 <0>        -0.6373
     23 C18         1.7163  -10.4922    1.2343 C.3       1 <0>         0.0854
     24 C19         2.0634   -9.6308    2.4530 C.3       1 <0>        -0.0219
     25 C20        -0.2651  -11.9302    1.0746 C.2       1 <0>         0.5209
     26 O2         -1.4687  -12.0785    1.0544 O.2       1 <0>        -0.5128
     27 C21         0.6436  -13.1261    0.9518 C.3       1 <0>        -0.1796
     28 C22         1.0360   -3.0095    5.5795 C.ar      1 <0>        -0.0706
     29 C23         1.9138   -3.4325    6.5600 C.ar      1 <0>        -0.1080
     30 C24         2.1558   -2.6340    7.6622 C.ar      1 <0>        -0.1139
     31 C25         1.5204   -1.4124    7.7836 C.ar      1 <0>        -0.1115
     32 C26         0.6433   -0.9890    6.8026 C.ar      1 <0>        -0.1125
     33 C27         0.4046   -1.7855    5.6983 C.ar      1 <0>        -0.1081
     34 F1          0.1330   -4.6168    0.0169 F         1 <0>        -0.1401
     35 H1          0.7991    1.3958   -0.5874 H         1 <0>         0.0807
     36 H2         -0.7489    1.2151   -1.4472 H         1 <0>         0.0776
     37 H3         -0.7301    1.3957    0.3235 H         1 <0>         0.0737
     38 H4         -0.1185   -0.8844   -2.4886 H         1 <0>         0.1451
     39 H5          0.0304   -3.3292   -2.2508 H         1 <0>         0.1469
     40 H6         -0.0833   -0.4531    1.7535 H         1 <0>         0.1397
     41 H7          1.9985   -3.8607    2.5714 H         1 <0>         0.0912
     42 H8          1.7465   -2.2443    3.3087 H         1 <0>         0.0973
     43 H9         -3.2082   -4.2885    3.5030 H         1 <0>         0.0859
     44 H10        -3.4056   -5.7147    4.5496 H         1 <0>         0.0912
     45 H11        -3.7555   -4.0892    5.1850 H         1 <0>         0.0962
     46 H12         2.4804   -5.1781    4.5712 H         1 <0>         0.0853
     47 H13         1.0563   -5.6924    5.5070 H         1 <0>         0.0982
     48 H14        -0.1118   -6.3393    3.4578 H         1 <0>         0.0895
     49 H15         1.2180   -5.7026    2.4605 H         1 <0>         0.0860
     50 H16         2.7673   -7.3529    3.4728 H         1 <0>         0.1348
     51 H17         1.4375   -7.9896    4.4701 H         1 <0>         0.1338
     52 H18        -0.3181   -9.2765    3.4517 H         1 <0>         0.1355
     53 H19        -0.7203   -7.7706    2.5920 H         1 <0>         0.1431
     54 H20        -1.6415   -9.8312    1.4677 H         1 <0>         0.1361
     55 H21        -0.5269   -8.9060    0.4273 H         1 <0>         0.0943
     56 H22         2.2195  -11.4560    1.3117 H         1 <0>         0.1333
     57 H23         2.0321   -9.9828    0.3238 H         1 <0>         0.0977
     58 H24         3.1261   -9.3892    2.4365 H         1 <0>         0.1454
     59 H25         1.8295  -10.1802    3.3649 H         1 <0>         0.1354
     60 H26         1.2692  -13.1999    1.8413 H         1 <0>         0.0936
     61 H27         0.0429  -14.0304    0.8541 H         1 <0>         0.1043
     62 H28         1.2759  -13.0131    0.0712 H         1 <0>         0.0959
     63 H29         2.4102   -4.3869    6.4651 H         1 <0>         0.1222
     64 H30         2.8411   -2.9648    8.4286 H         1 <0>         0.1258
     65 H31         1.7090   -0.7889    8.6450 H         1 <0>         0.1260
     66 H32         0.1467   -0.0347    6.8976 H         1 <0>         0.1248
     67 H33        -0.2778   -1.4531    4.9301 H         1 <0>         0.1121
     68 H34         1.4408   -7.9186    1.5368 H         1 <0>         0.4229
@<TRIPOS>BOND
     1    1    2 1
     2    1   35 1
     3    1   36 1
     4    1   37 1
     5    2    7 ar
     6    2    3 ar
     7    3    4 ar
     8    3   38 1
     9    4    5 ar
    10    4   39 1
    11    5    6 ar
    12    5   34 1
    13    6    7 ar
    14    6    8 1
    15    7   40 1
    16    8   12 1
    17    8    9 1
    18    9   10 1
    19    9   41 1
    20    9   42 1
    21   10   11 1
    22   10   16 1
    23   10   28 1
    24   11   12 2
    25   11   13 1
    26   13   14 2
    27   13   15 1
    28   15   43 1
    29   15   44 1
    30   15   45 1
    31   16   17 1
    32   16   46 1
    33   16   47 1
    34   17   18 1
    35   17   48 1
    36   17   49 1
    37   18   19 1
    38   18   50 1
    39   18   51 1
    40   19   24 1
    41   19   20 1
    42   19   68 1
    43   20   21 1
    44   20   52 1
    45   20   53 1
    46   21   22 1
    47   21   54 1
    48   21   55 1
    49   22   23 1
    50   22   25 am
    51   23   24 1
    52   23   56 1
    53   23   57 1
    54   24   58 1
    55   24   59 1
    56   25   26 2
    57   25   27 1
    58   27   60 1
    59   27   61 1
    60   27   62 1
    61   28   33 ar
    62   28   29 ar
    63   29   30 ar
    64   29   63 1
    65   30   31 ar
    66   30   64 1
    67   31   32 ar
    68   31   65 1
    69   32   33 ar
    70   32   66 1
    71   33   67 1
@<TRIPOS>MOLECULE
CHEMBL443490__3
   67    70     0     0     0
SMALL
USER_CHARGES

@<TRIPOS>ATOM
      1 C1         -0.2046    0.9750   -0.5334 C.3       1 <0>        -0.1165
      2 C2         -0.1142   -0.5216   -0.3818 C.ar      1 <0>        -0.0867
      3 C3         -0.0796   -1.3283   -1.5048 C.ar      1 <0>        -0.0756
      4 C4          0.0038   -2.7021   -1.3716 C.ar      1 <0>        -0.1434
      5 C5          0.0525   -3.2743   -0.1135 C.ar      1 <0>         0.1132
      6 C6          0.0179   -2.4648    1.0180 C.ar      1 <0>         0.1222
      7 C7         -0.0602   -1.0847    0.8780 C.ar      1 <0>        -0.0765
      8 N1          0.0663   -3.0377    2.2905 N.pl3     1 <0>        -0.3947
      9 C8          1.2921   -3.2098    3.0866 C.3       1 <0>         0.0725
     10 C9          0.7722   -3.8800    4.3780 C.3       1 <0>         0.0072
     11 C10        -0.7157   -3.9865    4.1027 C.2       1 <0>        -0.0834
     12 N2         -0.9479   -3.4808    2.9284 N.2       1 <0>        -0.1244
     13 C11        -1.6791   -4.5334    4.9713 C.2       1 <0>         0.4358
     14 O1         -1.3561   -4.8989    6.0839 O.2       1 <0>        -0.4585
     15 C12        -3.1112   -4.6656    4.5210 C.3       1 <0>        -0.1976
     16 C13         1.3939   -5.2657    4.5626 C.3       1 <0>        -0.1028
     17 C14         0.9646   -6.1751    3.4095 C.3       1 <0>        -0.1143
     18 C15         1.6908   -7.5172    3.5208 C.3       1 <0>         0.0585
     19 N3          1.2786   -8.3903    2.4137 N.3       1 <0>        -0.5357
     20 C16        -0.1431   -8.7438    2.5233 C.3       1 <0>         0.0404
     21 C17        -0.5766   -9.4999    1.2629 C.3       1 <0>         0.1162
     22 N4          0.3337  -10.6379    1.0644 N.am      1 <0>        -0.6171
     23 C18         1.7819  -10.3816    1.0801 C.3       1 <0>         0.1119
     24 C19         2.1226   -9.5908    2.3477 C.3       1 <0>         0.0397
     25 C20        -0.1464  -11.8826    0.8728 C.2       1 <0>         0.5118
     26 O2         -1.3437  -12.0758    0.8624 O.2       1 <0>        -0.5456
     27 C21         0.8044  -13.0343    0.6715 C.3       1 <0>        -0.1742
     28 C22         1.0360   -3.0096    5.5796 C.ar      1 <0>        -0.0598
     29 C23         1.9138   -3.4327    6.5601 C.ar      1 <0>        -0.1054
     30 C24         2.1558   -2.6344    7.6623 C.ar      1 <0>        -0.1163
     31 C25         1.5204   -1.4127    7.7838 C.ar      1 <0>        -0.1188
     32 C26         0.6434   -0.9892    6.8028 C.ar      1 <0>        -0.1170
     33 C27         0.4046   -1.7857    5.6985 C.ar      1 <0>        -0.1098
     34 F1          0.1331   -4.6166    0.0169 F         1 <0>        -0.1246
     35 H1          0.7993    1.3961   -0.5870 H         1 <0>         0.0765
     36 H2         -0.7487    1.2154   -1.4469 H         1 <0>         0.0736
     37 H3         -0.7299    1.3959    0.3238 H         1 <0>         0.0706
     38 H4         -0.1182   -0.8841   -2.4884 H         1 <0>         0.1407
     39 H5          0.0306   -3.3288   -2.2507 H         1 <0>         0.1454
     40 H6         -0.0832   -0.4531    1.7537 H         1 <0>         0.1370
     41 H7          1.9986   -3.8606    2.5715 H         1 <0>         0.0945
     42 H8          1.7466   -2.2443    3.3089 H         1 <0>         0.0904
     43 H9         -3.2082   -4.2885    3.5029 H         1 <0>         0.0852
     44 H10        -3.4056   -5.7147    4.5494 H         1 <0>         0.0913
     45 H11        -3.7555   -4.0893    5.1849 H         1 <0>         0.0914
     46 H12         2.4804   -5.1782    4.5712 H         1 <0>         0.0731
     47 H13         1.0563   -5.6926    5.5070 H         1 <0>         0.0841
     48 H14        -0.1118   -6.3393    3.4577 H         1 <0>         0.0641
     49 H15         1.2180   -5.7026    2.4604 H         1 <0>         0.0705
     50 H16         2.7672   -7.3530    3.4726 H         1 <0>         0.0764
     51 H17         1.4374   -7.9897    4.4699 H         1 <0>         0.0362
     52 H18        -0.2940   -9.3772    3.3974 H         1 <0>         0.0386
     53 H19        -0.7369   -7.8355    2.6249 H         1 <0>         0.0894
     54 H20        -1.5964   -9.8641    1.3869 H         1 <0>         0.0952
     55 H21        -0.5246   -8.8348    0.4008 H         1 <0>         0.0749
     56 H22         2.3214  -11.3287    1.0833 H         1 <0>         0.0910
     57 H23         2.0606   -9.8012    0.2005 H         1 <0>         0.0789
     58 H24         3.1719   -9.2967    2.3220 H         1 <0>         0.0889
     59 H25         1.9401  -10.2124    3.2242 H         1 <0>         0.0394
     60 H26         1.4474  -13.1319    1.5462 H         1 <0>         0.0874
     61 H27         0.2366  -13.9544    0.5335 H         1 <0>         0.0929
     62 H28         1.4170  -12.8497   -0.2110 H         1 <0>         0.0888
     63 H29         2.4102   -4.3872    6.4652 H         1 <0>         0.1253
     64 H30         2.8410   -2.9652    8.4288 H         1 <0>         0.1229
     65 H31         1.7090   -0.7893    8.6453 H         1 <0>         0.1216
     66 H32         0.1467   -0.0349    6.8979 H         1 <0>         0.1209
     67 H33        -0.2778   -1.4532    4.9302 H         1 <0>         0.1119
@<TRIPOS>BOND
     1    1    2 1
     2    1   35 1
     3    1   36 1
     4    1   37 1
     5    2    7 ar
     6    2    3 ar
     7    3    4 ar
     8    3   38 1
     9    4    5 ar
    10    4   39 1
    11    5    6 ar
    12    5   34 1
    13    6    7 ar
    14    6    8 1
    15    7   40 1
    16    8   12 1
    17    8    9 1
    18    9   10 1
    19    9   41 1
    20    9   42 1
    21   10   11 1
    22   10   16 1
    23   10   28 1
    24   11   12 2
    25   11   13 1
    26   13   14 2
    27   13   15 1
    28   15   43 1
    29   15   44 1
    30   15   45 1
    31   16   17 1
    32   16   46 1
    33   16   47 1
    34   17   18 1
    35   17   48 1
    36   17   49 1
    37   18   19 1
    38   18   50 1
    39   18   51 1
    40   19   24 1
    41   19   20 1
    42   20   21 1
    43   20   52 1
    44   20   53 1
    45   21   22 1
    46   21   54 1
    47   21   55 1
    48   22   23 1
    49   22   25 am
    50   23   24 1
    51   23   56 1
    52   23   57 1
    53   24   58 1
    54   24   59 1
    55   25   26 2
    56   25   27 1
    57   27   60 1
    58   27   61 1
    59   27   62 1
    60   28   33 ar
    61   28   29 ar
    62   29   30 ar
    63   29   63 1
    64   30   31 ar
    65   30   64 1
    66   31   32 ar
    67   31   65 1
    68   32   33 ar
    69   32   66 1
    70   33   67 1
@<TRIPOS>MOLECULE
CHEMBL590123
   50    53     0     0     0
SMALL
USER_CHARGES

@<TRIPOS>ATOM
      1 C1         -0.0028    1.5225    0.0706 C.3       1 <0>        -0.1137
      2 C2          0.0163    0.0157    0.0495 C.ar      1 <0>        -0.1034
      3 C3          0.0242   -0.6558   -1.1655 C.ar      1 <0>        -0.0910
      4 C4          0.0422   -2.0324   -1.2064 C.ar      1 <0>        -0.1233
      5 C5          0.0523   -2.7596   -0.0207 C.ar      1 <0>         0.0989
      6 C6          0.0442   -2.0745    1.2095 C.ar      1 <0>        -0.0939
      7 C7          0.0315   -0.6780    1.2262 C.ar      1 <0>        -0.0751
      8 C8          0.0570   -3.1068    2.2421 C.2       1 <0>        -0.1633
      9 C9          0.0735   -4.2985    1.6147 C.2       1 <0>         0.0676
     10 N1          0.0693   -4.1081    0.2627 N.pl3     1 <0>        -0.5779
     11 H1          0.0768   -4.8166   -0.3998 H         1 <0>         0.4172
     12 C10         0.0983   -5.6240    2.3442 C.3       1 <0>         0.2577
     13 N2         -0.1804   -5.3506    3.7645 N.am      1 <0>        -0.5890
     14 C11         0.5052   -4.2185    4.4058 C.3       1 <0>         0.0910
     15 C12         0.0487   -2.9159    3.7366 C.3       1 <0>        -0.0606
     16 C13        -1.0428   -6.1188    4.4593 C.2       1 <0>         0.5278
     17 O1         -1.6003   -7.0485    3.9155 O.2       1 <0>        -0.5294
     18 C14        -1.3143   -5.8224    5.9117 C.3       1 <0>        -0.1764
     19 C15        -2.3219   -6.8352    6.4591 C.3       1 <0>         0.0064
     20 N3         -2.5866   -6.5464    7.8749 N.4       1 <0>        -0.6366
     21 C16         1.4565   -6.2615    2.2022 C.ar      1 <0>        -0.0953
     22 C17         1.5680   -7.5457    1.7014 C.ar      1 <0>        -0.1093
     23 C18         2.8124   -8.1332    1.5699 C.ar      1 <0>        -0.0992
     24 C19         3.9482   -7.4385    1.9391 C.ar      1 <0>        -0.1327
     25 C20         3.8390   -6.1503    2.4417 C.ar      1 <0>         0.1083
     26 C21         2.5893   -5.5605    2.5670 C.ar      1 <0>        -0.1275
     27 O2          4.9547   -5.4648    2.8056 O.3       1 <0>        -0.4981
     28 H2          1.0201    1.8989    0.0701 H         1 <0>         0.0704
     29 H3         -0.5262    1.8915   -0.8115 H         1 <0>         0.0674
     30 H4         -0.5163    1.8668    0.9683 H         1 <0>         0.0652
     31 H5          0.0158   -0.0934   -2.0875 H         1 <0>         0.1294
     32 H6          0.0479   -2.5459   -2.1565 H         1 <0>         0.1233
     33 H7          0.0301   -0.1479    2.1671 H         1 <0>         0.1212
     34 H8         -0.6666   -6.2853    1.9371 H         1 <0>         0.1215
     35 H9          0.2528   -4.1920    5.4658 H         1 <0>         0.0912
     36 H10         1.5830   -4.3307    4.2884 H         1 <0>         0.0925
     37 H11         0.7306   -2.1090    4.0054 H         1 <0>         0.0915
     38 H12        -0.9601   -2.6693    4.0677 H         1 <0>         0.0761
     39 H13        -0.3849   -5.8928    6.4768 H         1 <0>         0.1210
     40 H14        -1.7222   -4.8161    6.0071 H         1 <0>         0.1215
     41 H15        -3.2514   -6.7649    5.8940 H         1 <0>         0.1440
     42 H16        -1.9140   -7.8415    6.3637 H         1 <0>         0.1439
     43 H17        -3.2511   -7.2143    8.2360 H         1 <0>         0.4435
     44 H18        -1.7263   -6.6115    8.3980 H         1 <0>         0.4356
     45 H19         0.6813   -8.0906    1.4128 H         1 <0>         0.1288
     46 H20         2.8968   -9.1363    1.1785 H         1 <0>         0.1337
     47 H21         4.9201   -7.8982    1.8369 H         1 <0>         0.1340
     48 H22         2.5021   -4.5559    2.9536 H         1 <0>         0.1331
     49 H23         5.3448   -4.9414    2.0923 H         1 <0>         0.3964
     50 H24        -2.9642   -5.6149    7.9632 H         1 <0>         0.4356
@<TRIPOS>BOND
     1    1    2 1
     2    1   28 1
     3    1   29 1
     4    1   30 1
     5    2    7 ar
     6    2    3 ar
     7    3    4 ar
     8    3   31 1
     9    4    5 ar
    10    4   32 1
    11    5   10 1
    12    5    6 ar
    13    6    7 ar
    14    6    8 1
    15    7   33 1
    16    8   15 1
    17    8    9 2
    18    9   10 1
    19    9   12 1
    20   10   11 1
    21   12   13 1
    22   12   21 1
    23   12   34 1
    24   13   14 1
    25   13   16 am
    26   14   15 1
    27   14   35 1
    28   14   36 1
    29   15   37 1
    30   15   38 1
    31   16   17 2
    32   16   18 1
    33   18   19 1
    34   18   39 1
    35   18   40 1
    36   19   20 1
    37   19   41 1
    38   19   42 1
    39   20   43 1
    40   20   44 1
    41   20   50 1
    42   21   26 ar
    43   21   22 ar
    44   22   23 ar
    45   22   45 1
    46   23   24 ar
    47   23   46 1
    48   24   25 ar
    49   24   47 1
    50   25   26 ar
    51   25   27 1
    52   26   48 1
    53   27   49 1
@<TRIPOS>MOLECULE
CHEMBL590123__1
   50    53     0     0     0
SMALL
USER_CHARGES

@<TRIPOS>ATOM
      1 C1         -0.2717    1.7796    1.1994 C.3       1 <0>        -0.1138
      2 C2         -0.2386    0.2941    0.9478 C.ar      1 <0>        -0.1034
      3 C3         -0.3275   -0.1862   -0.3517 C.ar      1 <0>        -0.0909
      4 C4         -0.2996   -1.5402   -0.6028 C.ar      1 <0>        -0.1232
      5 C5         -0.1806   -2.4374    0.4534 C.ar      1 <0>         0.0991
      6 C6         -0.0901   -1.9459    1.7699 C.ar      1 <0>        -0.0937
      7 C7         -0.1157   -0.5685    1.9999 C.ar      1 <0>        -0.0751
      8 C8          0.0232   -3.1214    2.6286 C.2       1 <0>        -0.1633
      9 C9         -0.0055   -4.2043    1.8283 C.2       1 <0>         0.0684
     10 N1         -0.1252   -3.8124    0.5259 N.pl3     1 <0>        -0.5779
     11 H1         -0.1656   -4.4125   -0.2351 H         1 <0>         0.4168
     12 C10         0.0799   -5.6243    2.3443 C.3       1 <0>         0.2577
     13 N2          0.4709   -5.5549    3.7628 N.am      1 <0>        -0.5892
     14 C11        -0.1961   -4.5667    4.6239 C.3       1 <0>         0.0913
     15 C12         0.1543   -3.1576    4.1292 C.3       1 <0>        -0.0605
     16 C13         1.4163   -6.3771    4.2594 C.2       1 <0>         0.5273
     17 O1          1.9566   -7.1868    3.5360 O.2       1 <0>        -0.5285
     18 C14         1.8022   -6.2902    5.7136 C.3       1 <0>        -0.1759
     19 C15         2.8879   -7.3249    6.0159 C.3       1 <0>         0.0060
     20 N3          3.2640   -7.2403    7.4334 N.4       1 <0>        -0.6365
     21 C16        -1.2620   -6.2978    2.2152 C.ar      1 <0>        -0.0944
     22 C17        -2.3846   -5.7138    2.7729 C.ar      1 <0>        -0.1109
     23 C18        -3.6170   -6.3291    2.6562 C.ar      1 <0>        -0.1006
     24 C19        -3.7299   -7.5299    1.9821 C.ar      1 <0>        -0.1324
     25 C20        -2.6054   -8.1177    1.4218 C.ar      1 <0>         0.1106
     26 C21        -1.3706   -7.4951    1.5351 C.ar      1 <0>        -0.1270
     27 O2         -2.7138   -9.2987    0.7582 O.3       1 <0>        -0.4974
     28 H2          0.7435    2.1756    1.1716 H         1 <0>         0.0697
     29 H3         -0.8723    2.2651    0.4302 H         1 <0>         0.0676
     30 H4         -0.7102    1.9726    2.1785 H         1 <0>         0.0656
     31 H5         -0.4198    0.5085   -1.1735 H         1 <0>         0.1293
     32 H6         -0.3702   -1.9043   -1.6171 H         1 <0>         0.1232
     33 H7         -0.0425   -0.1865    3.0074 H         1 <0>         0.1212
     34 H8          0.8296   -6.1790    1.7800 H         1 <0>         0.1199
     35 H9         -1.2754   -4.7118    4.5776 H         1 <0>         0.0925
     36 H10         0.1462   -4.6882    5.6516 H         1 <0>         0.0911
     37 H11         1.1786   -2.9154    4.4122 H         1 <0>         0.0759
     38 H12        -0.5298   -2.4343    4.5730 H         1 <0>         0.0917
     39 H13         2.1817   -5.2916    5.9298 H         1 <0>         0.1215
     40 H14         0.9282   -6.4889    6.3339 H         1 <0>         0.1210
     41 H15         2.5084   -8.3236    5.7997 H         1 <0>         0.1440
     42 H16         3.7619   -7.1263    5.3956 H         1 <0>         0.1440
     43 H17         3.9800   -7.9227    7.6327 H         1 <0>         0.4435
     44 H18         3.6153   -6.3158    7.6335 H         1 <0>         0.4356
     45 H19        -2.2983   -4.7756    3.3008 H         1 <0>         0.1297
     46 H20        -4.4923   -5.8710    3.0927 H         1 <0>         0.1327
     47 H21        -4.6928   -8.0106    1.8919 H         1 <0>         0.1341
     48 H22        -0.4943   -7.9484    1.0956 H         1 <0>         0.1314
     49 H23        -2.8923   -9.2036   -0.1874 H         1 <0>         0.3963
     50 H24         2.4549   -7.4242    8.0076 H         1 <0>         0.4356
@<TRIPOS>BOND
     1    1    2 1
     2    1   28 1
     3    1   29 1
     4    1   30 1
     5    2    7 ar
     6    2    3 ar
     7    3    4 ar
     8    3   31 1
     9    4    5 ar
    10    4   32 1
    11    5   10 1
    12    5    6 ar
    13    6    7 ar
    14    6    8 1
    15    7   33 1
    16    8   15 1
    17    8    9 2
    18    9   10 1
    19    9   12 1
    20   10   11 1
    21   12   13 1
    22   12   21 1
    23   12   34 1
    24   13   14 1
    25   13   16 am
    26   14   15 1
    27   14   35 1
    28   14   36 1
    29   15   37 1
    30   15   38 1
    31   16   17 2
    32   16   18 1
    33   18   19 1
    34   18   39 1
    35   18   40 1
    36   19   20 1
    37   19   41 1
    38   19   42 1
    39   20   43 1
    40   20   44 1
    41   20   50 1
    42   21   26 ar
    43   21   22 ar
    44   22   23 ar
    45   22   45 1
    46   23   24 ar
    47   23   46 1
    48   24   25 ar
    49   24   47 1
    50   25   26 ar
    51   25   27 1
    52   26   48 1
    53   27   49 1
@<TRIPOS>MOLECULE
CHEMBL400042
   48    50     0     0     0
SMALL
USER_CHARGES

@<TRIPOS>ATOM
      1 C1         -0.8150    1.5744    0.1967 C.3       1 <0>        -0.1646
      2 C2         -0.5055    0.1008    0.1358 C.2       1 <0>         0.5612
      3 O1          0.6466   -0.2785    0.1571 O.2       1 <0>        -0.5106
      4 N1         -1.5088   -0.7958    0.0577 N.am      1 <0>        -0.4593
      5 C3         -1.3470   -2.2493   -0.1058 C.3       1 <0>         0.1865
      6 C4         -2.7964   -2.7735   -0.1337 C.3       1 <0>        -0.1256
      7 C5         -3.6377   -1.5267    0.0210 C.2       1 <0>         0.1207
      8 N2         -2.8684   -0.4986    0.1245 N.2       1 <0>        -0.1980
      9 C6         -5.1113   -1.4934    0.0546 C.ar      1 <0>        -0.0466
     10 C7         -5.8426   -2.6784   -0.0555 C.ar      1 <0>        -0.1029
     11 C8         -7.2228   -2.6398   -0.0228 C.ar      1 <0>         0.0948
     12 C9         -7.8825   -1.4289    0.1189 C.ar      1 <0>        -0.1016
     13 C10        -7.1651   -0.2518    0.2284 C.ar      1 <0>        -0.1234
     14 C11        -5.7835   -0.2758    0.2026 C.ar      1 <0>         0.1281
     15 F1         -5.0841    0.8745    0.3149 F         1 <0>        -0.1118
     16 F2         -7.9318   -3.7848   -0.1296 F         1 <0>        -0.1263
     17 C12        -0.5825   -2.8427    1.0793 C.3       1 <0>        -0.1528
     18 C13        -1.2998   -2.4809    2.3815 C.3       1 <0>         0.0635
     19 H1         -2.3362   -2.8145    2.3302 H         1 <0>         0.1096
     20 C14        -0.6005   -3.1674    3.5565 C.3       1 <0>        -0.0345
     21 N3         -1.2892   -2.8201    4.8068 N.4       1 <0>        -0.6363
     22 F3         -1.2647   -1.0942    2.5635 F         1 <0>        -0.1868
     23 C15        -0.6448   -2.5623   -1.4020 C.ar      1 <0>        -0.0958
     24 C16         0.1297   -3.7021   -1.5107 C.ar      1 <0>        -0.1076
     25 C17         0.7738   -3.9892   -2.6997 C.ar      1 <0>        -0.1132
     26 C18         0.6431   -3.1367   -3.7800 C.ar      1 <0>        -0.1056
     27 C19        -0.1321   -1.9973   -3.6715 C.ar      1 <0>        -0.1103
     28 C20        -0.7797   -1.7125   -2.4839 C.ar      1 <0>        -0.0993
     29 H2          0.1156    2.1389    0.2562 H         1 <0>         0.0952
     30 H3         -1.3615    1.8682   -0.6994 H         1 <0>         0.0947
     31 H4         -1.4228    1.7819    1.0774 H         1 <0>         0.0950
     32 H5         -3.0081   -3.2619   -1.0849 H         1 <0>         0.1181
     33 H6         -2.9714   -3.4582    0.6961 H         1 <0>         0.1048
     34 H7         -5.3300   -3.6226   -0.1663 H         1 <0>         0.1505
     35 H8         -8.9619   -1.4046    0.1435 H         1 <0>         0.1549
     36 H9         -7.6857    0.6881    0.3382 H         1 <0>         0.1564
     37 H10        -0.5392   -3.9270    0.9775 H         1 <0>         0.1125
     38 H11         0.4297   -2.4387    1.0977 H         1 <0>         0.1163
     39 H12        -0.6279   -4.2478    3.4147 H         1 <0>         0.1563
     40 H13         0.4359   -2.8338    3.6078 H         1 <0>         0.1498
     41 H14        -2.2486   -3.1289    4.7593 H         1 <0>         0.4365
     42 H15        -0.8281   -3.2728    5.5817 H         1 <0>         0.4444
     43 H16         0.2318   -4.3682   -0.6667 H         1 <0>         0.1220
     44 H17         1.3795   -4.8794   -2.7844 H         1 <0>         0.1289
     45 H18         1.1469   -3.3607   -4.7086 H         1 <0>         0.1289
     46 H19        -0.2340   -1.3311   -4.5154 H         1 <0>         0.1276
     47 H20        -1.3884   -0.8243   -2.4003 H         1 <0>         0.1152
     48 H21        -1.2638   -1.8200    4.9380 H         1 <0>         0.4406
@<TRIPOS>BOND
     1    1    2 1
     2    1   29 1
     3    1   30 1
     4    1   31 1
     5    2    3 2
     6    2    4 am
     7    4    8 1
     8    4    5 1
     9    5    6 1
    10    5   17 1
    11    5   23 1
    12    6    7 1
    13    6   32 1
    14    6   33 1
    15    7    8 2
    16    7    9 1
    17    9   14 ar
    18    9   10 ar
    19   10   11 ar
    20   10   34 1
    21   11   12 ar
    22   11   16 1
    23   12   13 ar
    24   12   35 1
    25   13   14 ar
    26   13   36 1
    27   14   15 1
    28   17   18 1
    29   17   37 1
    30   17   38 1
    31   18   19 1
    32   18   20 1
    33   18   22 1
    34   20   21 1
    35   20   39 1
    36   20   40 1
    37   21   41 1
    38   21   42 1
    39   21   48 1
    40   23   28 ar
    41   23   24 ar
    42   24   25 ar
    43   24   43 1
    44   25   26 ar
    45   25   44 1
    46   26   27 ar
    47   26   45 1
    48   27   28 ar
    49   27   46 1
    50   28   47 1
@<TRIPOS>MOLECULE
CHEMBL522806
   42    44     0     0     0
SMALL
USER_CHARGES

@<TRIPOS>ATOM
      1 C1          0.3727    1.4503    0.2327 C.3       1 <0>        -0.1301
      2 C2          0.1791   -0.0385    0.1031 C.2       1 <0>         0.1828
      3 C3         -1.0693   -0.5558    0.1699 C.2       1 <0>        -0.2710
      4 C4         -1.2178   -2.0578    0.0348 C.3       1 <0>         0.2237
      5 H1         -1.7107   -2.4290    0.9333 H         1 <0>         0.1004
      6 N1          0.0177   -2.8351   -0.1595 N.pl3     1 <0>        -0.6501
      7 C5          1.1912   -2.1740   -0.2050 C.2       1 <0>         0.5509
      8 S1          2.6353   -3.0655   -0.4304 S.2       1 <0>        -0.5989
      9 N2          1.2646   -0.8425   -0.0853 N.pl3     1 <0>        -0.4928
     10 C6          2.5862   -0.2142   -0.1545 C.3       1 <0>         0.0501
     11 C7         -2.1269   -2.3313   -1.1356 C.ar      1 <0>        -0.1013
     12 C8         -1.6120   -2.3586   -2.4187 C.ar      1 <0>        -0.1027
     13 C9         -2.4434   -2.6093   -3.4944 C.ar      1 <0>        -0.0970
     14 C10        -3.7914   -2.8328   -3.2899 C.ar      1 <0>        -0.1342
     15 C11        -4.3103   -2.8060   -2.0038 C.ar      1 <0>         0.1116
     16 C12        -3.4727   -2.5602   -0.9252 C.ar      1 <0>        -0.1280
     17 O1         -5.6359   -3.0256   -1.7999 O.3       1 <0>        -0.4960
     18 C13        -2.1968    0.2767    0.3599 C.2       1 <0>         0.4711
     19 O2         -2.5257    1.0639   -0.5090 O.2       1 <0>        -0.4292
     20 C14        -2.9768    0.1910    1.6146 C.ar      1 <0>        -0.1663
     21 C15        -2.5296   -0.6127    2.6643 C.ar      1 <0>        -0.0740
     22 C16        -3.2611   -0.6879    3.8315 C.ar      1 <0>        -0.1308
     23 C17        -4.4361    0.0310    3.9626 C.ar      1 <0>        -0.0846
     24 C18        -4.8849    0.8297    2.9257 C.ar      1 <0>        -0.1290
     25 C19        -4.1597    0.9181    1.7554 C.ar      1 <0>        -0.0581
     26 H2          0.4075    1.9000   -0.7597 H         1 <0>         0.0999
     27 H3         -0.4572    1.8770    0.7959 H         1 <0>         0.0890
     28 H4          1.3079    1.6510    0.7554 H         1 <0>         0.0904
     29 H5         -0.0123   -3.8002   -0.2522 H         1 <0>         0.4468
     30 H6          2.9803   -0.0850    0.8536 H         1 <0>         0.0843
     31 H7          3.2605   -0.8487   -0.7297 H         1 <0>         0.1264
     32 H8          2.5011    0.7586   -0.6387 H         1 <0>         0.0892
     33 H9         -0.5587   -2.1835   -2.5808 H         1 <0>         0.1184
     34 H10        -2.0389   -2.6301   -4.4956 H         1 <0>         0.1314
     35 H11        -4.4406   -3.0279   -4.1306 H         1 <0>         0.1329
     36 H12        -3.8735   -2.5434    0.0775 H         1 <0>         0.1303
     37 H13        -5.8637   -3.9549   -1.6600 H         1 <0>         0.3927
     38 H14        -1.6130   -1.1749    2.5629 H         1 <0>         0.1257
     39 H15        -2.9162   -1.3094    4.6445 H         1 <0>         0.1302
     40 H16        -5.0055   -0.0317    4.8781 H         1 <0>         0.1295
     41 H17        -5.8028    1.3884    3.0343 H         1 <0>         0.1316
     42 H18        -4.5087    1.5453    0.9485 H         1 <0>         0.1348
@<TRIPOS>BOND
     1    1    2 1
     2    1   26 1
     3    1   27 1
     4    1   28 1
     5    2    9 1
     6    2    3 2
     7    3    4 1
     8    3   18 1
     9    4    5 1
    10    4    6 1
    11    4   11 1
    12    6    7 1
    13    6   29 1
    14    7    8 2
    15    7    9 1
    16    9   10 1
    17   10   30 1
    18   10   31 1
    19   10   32 1
    20   11   16 ar
    21   11   12 ar
    22   12   13 ar
    23   12   33 1
    24   13   14 ar
    25   13   34 1
    26   14   15 ar
    27   14   35 1
    28   15   16 ar
    29   15   17 1
    30   16   36 1
    31   17   37 1
    32   18   19 2
    33   18   20 1
    34   20   25 ar
    35   20   21 ar
    36   21   22 ar
    37   21   38 1
    38   22   23 ar
    39   22   39 1
    40   23   24 ar
    41   23   40 1
    42   24   25 ar
    43   24   41 1
    44   25   42 1
@<TRIPOS>MOLECULE
CHEMBL491384
   42    44     0     0     0
SMALL
USER_CHARGES

@<TRIPOS>ATOM
      1 C1          0.2034    1.1606   -0.5329 C.3       1 <0>        -0.1314
      2 C2         -0.0052   -0.2705   -0.1093 C.2       1 <0>         0.1847
      3 C3         -1.2462   -0.6906    0.2282 C.2       1 <0>        -0.2734
      4 C4         -1.4104   -2.1374    0.6480 C.3       1 <0>         0.2230
      5 H1         -2.1343   -2.6016   -0.0218 H         1 <0>         0.1001
      6 N1         -0.1970   -2.9718    0.6538 N.pl3     1 <0>        -0.6492
      7 C5          0.9715   -2.4072    0.2905 C.2       1 <0>         0.5506
      8 S1          2.3899   -3.3660    0.2928 S.2       1 <0>        -0.5980
      9 N2          1.0590   -1.1229   -0.0776 N.pl3     1 <0>        -0.4934
     10 C6          2.3732   -0.6021   -0.4621 C.3       1 <0>         0.0503
     11 C7         -1.9920   -2.1547    2.0381 C.ar      1 <0>        -0.1037
     12 C8         -1.1988   -1.8289    3.1230 C.ar      1 <0>        -0.0975
     13 C9         -1.7293   -1.8438    4.3995 C.ar      1 <0>        -0.0981
     14 C10        -3.0539   -2.1849    4.5944 C.ar      1 <0>        -0.1323
     15 C11        -3.8517   -2.5122    3.5078 C.ar      1 <0>         0.1095
     16 C12        -3.3184   -2.4905    2.2270 C.ar      1 <0>        -0.1264
     17 O1         -5.1549   -2.8480    3.6969 O.3       1 <0>        -0.4965
     18 C13        -2.3520    0.1903    0.1909 C.2       1 <0>         0.4732
     19 O2         -2.4046    1.1344    0.9583 O.2       1 <0>        -0.4326
     20 C14        -3.4453   -0.0353   -0.7807 C.ar      1 <0>        -0.1662
     21 C15        -3.3397   -1.0520   -1.7309 C.ar      1 <0>        -0.0733
     22 C16        -4.3626   -1.2574   -2.6335 C.ar      1 <0>        -0.1301
     23 C17        -5.4912   -0.4577   -2.5983 C.ar      1 <0>        -0.0842
     24 C18        -5.6021    0.5519   -1.6588 C.ar      1 <0>        -0.1296
     25 C19        -4.5888    0.7640   -0.7469 C.ar      1 <0>        -0.0598
     26 H2          0.6750    1.1836   -1.5153 H         1 <0>         0.0924
     27 H3         -0.7592    1.6696   -0.5800 H         1 <0>         0.0911
     28 H4          0.8455    1.6636    0.1902 H         1 <0>         0.0968
     29 H5         -0.2378   -3.9055    0.9133 H         1 <0>         0.4470
     30 H6          2.8504   -0.1445    0.4045 H         1 <0>         0.0839
     31 H7          2.9943   -1.4189   -0.8298 H         1 <0>         0.1257
     32 H8          2.2527    0.1445   -1.2470 H         1 <0>         0.0896
     33 H9         -0.1629   -1.5626    2.9728 H         1 <0>         0.1167
     34 H10        -1.1077   -1.5889    5.2451 H         1 <0>         0.1314
     35 H11        -3.4677   -2.1971    5.5919 H         1 <0>         0.1330
     36 H12        -3.9388   -2.7403    1.3790 H         1 <0>         0.1310
     37 H13        -5.7631   -2.0969    3.6658 H         1 <0>         0.3930
     38 H14        -2.4589   -1.6764   -1.7598 H         1 <0>         0.1263
     39 H15        -4.2821   -2.0438   -3.3693 H         1 <0>         0.1306
     40 H16        -6.2889   -0.6222   -3.3076 H         1 <0>         0.1297
     41 H17        -6.4856    1.1726   -1.6366 H         1 <0>         0.1315
     42 H18        -4.6786    1.5495   -0.0111 H         1 <0>         0.1346
@<TRIPOS>BOND
     1    1    2 1
     2    1   26 1
     3    1   27 1
     4    1   28 1
     5    2    9 1
     6    2    3 2
     7    3    4 1
     8    3   18 1
     9    4    5 1
    10    4    6 1
    11    4   11 1
    12    6    7 1
    13    6   29 1
    14    7    8 2
    15    7    9 1
    16    9   10 1
    17   10   30 1
    18   10   31 1
    19   10   32 1
    20   11   16 ar
    21   11   12 ar
    22   12   13 ar
    23   12   33 1
    24   13   14 ar
    25   13   34 1
    26   14   15 ar
    27   14   35 1
    28   15   16 ar
    29   15   17 1
    30   16   36 1
    31   17   37 1
    32   18   19 2
    33   18   20 1
    34   20   25 ar
    35   20   21 ar
    36   21   22 ar
    37   21   38 1
    38   22   23 ar
    39   22   39 1
    40   23   24 ar
    41   23   40 1
    42   24   25 ar
    43   24   41 1
    44   25   42 1
@<TRIPOS>MOLECULE
CHEMBL390303
   47    50     0     0     0
SMALL
USER_CHARGES

@<TRIPOS>ATOM
      1 C1         -0.0163    1.3518    0.0095 C.2       1 <0>        -0.1871
      2 C2          1.1754    2.0361    0.0018 C.2       1 <0>        -0.0486
      3 C3          2.3197    1.2526   -0.0134 C.2       1 <0>        -0.2717
      4 S1          1.6361   -0.3938   -0.0157 S.3       1 <0>         0.2131
      5 C4          0.0021   -0.0041    0.0020 C.2       1 <0>        -0.2081
      6 C5          3.7243    1.6694   -0.0252 C.2       1 <0>         0.6049
      7 O1          4.0079    2.8530   -0.0223 O.2       1 <0>        -0.4868
      8 N1          4.7023    0.7421   -0.0394 N.am      1 <0>        -0.6153
      9 C6          6.0302    1.1362   -0.0506 C.2       1 <0>         0.0356
     10 C7          7.1583    0.3304   -0.0714 C.2       1 <0>        -0.2238
     11 C8          8.4494    0.9960   -0.0798 C.2       1 <0>        -0.0621
     12 C9          8.3760    2.3444   -0.0656 C.2       1 <0>        -0.2222
     13 S2          6.6433    2.6995   -0.0497 S.3       1 <0>         0.2873
     14 C10         9.5225    3.3078   -0.0679 C.3       1 <0>        -0.0346
     15 C11        10.8010    2.5366    0.2917 C.3       1 <0>        -0.1138
     16 C12        10.8679    1.2643   -0.5579 C.3       1 <0>        -0.1191
     17 C13         9.7904    0.2773   -0.1038 C.3       1 <0>        -0.0583
     18 C14         7.0526   -1.1316   -0.0838 C.2       1 <0>         0.5823
     19 O2          6.9968   -1.7288   -1.1429 O.2       1 <0>        -0.5323
     20 N2          7.0172   -1.8145    1.0776 N.am      1 <0>        -0.6045
     21 C15         7.0775   -1.1073    2.3640 C.3       1 <0>         0.1086
     22 C16         5.8858   -1.5428    3.2225 C.3       1 <0>        -0.1354
     23 C17         5.8799   -3.0684    3.3436 C.3       1 <0>        -0.1206
     24 C18         5.7276   -3.6915    1.9541 C.3       1 <0>        -0.1350
     25 C19         6.9114   -3.2800    1.0813 C.3       1 <0>         0.1077
     26 H1         -0.9545    1.8865    0.0258 H         1 <0>         0.1446
     27 H2          1.2181    3.1153    0.0068 H         1 <0>         0.1548
     28 H3         -0.8410   -0.6791    0.0070 H         1 <0>         0.1939
     29 H4          4.4763   -0.2012   -0.0418 H         1 <0>         0.4166
     30 H5          9.6273    3.7518   -1.0578 H         1 <0>         0.0824
     31 H6          9.3459    4.0907    0.6697 H         1 <0>         0.0813
     32 H7         11.6724    3.1587    0.0868 H         1 <0>         0.0737
     33 H8         10.7813    2.2694    1.3482 H         1 <0>         0.0677
     34 H9         10.7066    1.5195   -1.6053 H         1 <0>         0.0673
     35 H10        11.8501    0.8052   -0.4456 H         1 <0>         0.0698
     36 H11        10.0274   -0.0879    0.8955 H         1 <0>         0.0756
     37 H12         9.7441   -0.5600   -0.8001 H         1 <0>         0.0746
     38 H13         8.0070   -1.3576    2.8754 H         1 <0>         0.0715
     39 H14         7.0306   -0.0320    2.1924 H         1 <0>         0.0855
     40 H15         5.9708   -1.0994    4.2146 H         1 <0>         0.0775
     41 H16         4.9593   -1.2115    2.7535 H         1 <0>         0.0633
     42 H17         6.8171   -3.4009    3.7899 H         1 <0>         0.0664
     43 H18         5.0471   -3.3794    3.9743 H         1 <0>         0.0673
     44 H19         5.7000   -4.7775    2.0434 H         1 <0>         0.0782
     45 H20         4.8026   -3.3400    1.4971 H         1 <0>         0.0652
     46 H21         6.7550   -3.6376    0.0636 H         1 <0>         0.0935
     47 H22         7.8271   -3.7114    1.4857 H         1 <0>         0.0694
@<TRIPOS>BOND
     1    1    5 2
     2    1    2 1
     3    1   26 1
     4    2    3 2
     5    2   27 1
     6    3    4 1
     7    3    6 1
     8    4    5 1
     9    5   28 1
    10    6    7 2
    11    6    8 am
    12    8    9 1
    13    8   29 1
    14    9   13 1
    15    9   10 2
    16   10   11 1
    17   10   18 1
    18   11   17 1
    19   11   12 2
    20   12   13 1
    21   12   14 1
    22   14   15 1
    23   14   30 1
    24   14   31 1
    25   15   16 1
    26   15   32 1
    27   15   33 1
    28   16   17 1
    29   16   34 1
    30   16   35 1
    31   17   36 1
    32   17   37 1
    33   18   19 2
    34   18   20 am
    35   20   25 1
    36   20   21 1
    37   21   22 1
    38   21   38 1
    39   21   39 1
    40   22   23 1
    41   22   40 1
    42   22   41 1
    43   23   24 1
    44   23   42 1
    45   23   43 1
    46   24   25 1
    47   24   44 1
    48   24   45 1
    49   25   46 1
    50   25   47 1
@<TRIPOS>MOLECULE
CHEMBL210741
   58    61     0     0     0
SMALL
USER_CHARGES

@<TRIPOS>ATOM
      1 C1         -0.7703    0.2938   -0.1413 C.ar      1 <0>        -0.1081
      2 C2          0.1831    1.2917   -0.0628 C.ar      1 <0>        -0.1103
      3 C3          1.5237    0.9627    0.0102 C.ar      1 <0>        -0.0901
      4 C4          1.9109   -0.3643    0.0052 C.ar      1 <0>        -0.0883
      5 C5          0.9575   -1.3623   -0.0725 C.ar      1 <0>        -0.1141
      6 C6         -0.3830   -1.0332   -0.1469 C.ar      1 <0>        -0.1175
      7 C7          3.3725   -0.7231    0.0838 C.3       1 <0>         0.2034
      8 C8          3.8448   -0.7563    1.5508 C.3       1 <0>        -0.1231
      9 C9          4.9122    0.3128    1.6140 C.2       1 <0>         0.1431
     10 N1          5.0454    0.8570    0.4545 N.2       1 <0>        -0.2233
     11 N2          4.1985    0.3342   -0.5207 N.am      1 <0>        -0.4712
     12 C10         4.1449    0.7316   -1.8074 C.2       1 <0>         0.7462
     13 O1          3.2631    0.3178   -2.5353 O.2       1 <0>        -0.5725
     14 N3          5.0687    1.5876   -2.2874 N.am      1 <0>        -0.6118
     15 C11         6.2416    1.9654   -1.4831 C.3       1 <0>         0.0507
     16 C12         7.4983    1.7688   -2.3387 C.3       1 <0>         0.0482
     17 O2          7.3333    2.4549   -3.5820 O.3       1 <0>        -0.3752
     18 C13         6.2549    1.9648   -4.3824 C.3       1 <0>         0.0502
     19 C14         4.9375    2.1671   -3.6336 C.3       1 <0>         0.0903
     20 C15         5.6817    0.6766    2.8181 C.ar      1 <0>        -0.0503
     21 C16         5.4534    0.0108    4.0245 C.ar      1 <0>        -0.0971
     22 C17         6.1783    0.3565    5.1482 C.ar      1 <0>         0.0959
     23 C18         7.1301    1.3619    5.0809 C.ar      1 <0>        -0.0993
     24 C19         7.3612    2.0257    3.8901 C.ar      1 <0>        -0.1230
     25 C20         6.6478    1.6861    2.7562 C.ar      1 <0>         0.1280
     26 F1          6.8790    2.3315    1.5921 F         1 <0>        -0.1155
     27 F2          5.9587   -0.2865    6.3159 F         1 <0>        -0.1255
     28 C21         3.6330   -2.0669   -0.5998 C.3       1 <0>        -0.1158
     29 C22         3.2947   -1.9561   -2.0878 C.3       1 <0>        -0.1620
     30 C23         3.3795   -3.3402   -2.7345 C.3       1 <0>        -0.0148
     31 N4          3.0547   -3.2338   -4.1632 N.4       1 <0>        -0.6347
     32 H1         -1.8179    0.5508   -0.1938 H         1 <0>         0.1265
     33 H2         -0.1194    2.3285   -0.0588 H         1 <0>         0.1248
     34 H3          2.2686    1.7423    0.0709 H         1 <0>         0.1128
     35 H4          1.2601   -2.3990   -0.0768 H         1 <0>         0.1218
     36 H5         -1.1279   -1.8128   -0.2079 H         1 <0>         0.1259
     37 H6          3.0216   -0.5149    2.2231 H         1 <0>         0.1168
     38 H7          4.2657   -1.7317    1.7950 H         1 <0>         0.1161
     39 H8          6.1607    3.0106   -1.1844 H         1 <0>         0.0779
     40 H9          6.2982    1.3332   -0.5970 H         1 <0>         0.1417
     41 H10         8.3637    2.1717   -1.8125 H         1 <0>         0.1097
     42 H11         7.6481    0.7056   -2.5267 H         1 <0>         0.0491
     43 H12         6.2258    2.5088   -5.3265 H         1 <0>         0.1108
     44 H13         6.4002    0.9024   -4.5778 H         1 <0>         0.0501
     45 H14         4.1308    1.6684   -4.1709 H         1 <0>         0.1011
     46 H15         4.7230    3.2329   -3.5551 H         1 <0>         0.0807
     47 H16         4.7116   -0.7723    4.0786 H         1 <0>         0.1525
     48 H17         7.6937    1.6283    5.9628 H         1 <0>         0.1555
     49 H18         8.1041    2.8083    3.8449 H         1 <0>         0.1569
     50 H19         4.6831   -2.3354   -0.4850 H         1 <0>         0.0808
     51 H20         3.0094   -2.8345   -0.1416 H         1 <0>         0.0941
     52 H21         2.2847   -1.5628   -2.2025 H         1 <0>         0.1080
     53 H22         4.0034   -1.2846   -2.5726 H         1 <0>         0.1112
     54 H23         4.3895   -3.7335   -2.6198 H         1 <0>         0.1271
     55 H24         2.6708   -4.0117   -2.2498 H         1 <0>         0.1291
     56 H25         3.1106   -4.1466   -4.5897 H         1 <0>         0.4355
     57 H26         2.1197   -2.8697   -4.2694 H         1 <0>         0.4363
     58 H27         3.7107   -2.6122   -4.6119 H         1 <0>         0.4346
@<TRIPOS>BOND
     1    1    6 ar
     2    1    2 ar
     3    1   32 1
     4    2    3 ar
     5    2   33 1
     6    3    4 ar
     7    3   34 1
     8    4    5 ar
     9    4    7 1
    10    5    6 ar
    11    5   35 1
    12    6   36 1
    13    7   11 1
    14    7    8 1
    15    7   28 1
    16    8    9 1
    17    8   37 1
    18    8   38 1
    19    9   10 2
    20    9   20 1
    21   10   11 1
    22   11   12 am
    23   12   13 2
    24   12   14 am
    25   14   19 1
    26   14   15 1
    27   15   16 1
    28   15   39 1
    29   15   40 1
    30   16   17 1
    31   16   41 1
    32   16   42 1
    33   17   18 1
    34   18   19 1
    35   18   43 1
    36   18   44 1
    37   19   45 1
    38   19   46 1
    39   20   25 ar
    40   20   21 ar
    41   21   22 ar
    42   21   47 1
    43   22   23 ar
    44   22   27 1
    45   23   24 ar
    46   23   48 1
    47   24   25 ar
    48   24   49 1
    49   25   26 1
    50   28   29 1
    51   28   50 1
    52   28   51 1
    53   29   30 1
    54   29   52 1
    55   29   53 1
    56   30   31 1
    57   30   54 1
    58   30   55 1
    59   31   56 1
    60   31   57 1
    61   31   58 1
@<TRIPOS>MOLECULE
CHEMBL210741__1
   58    61     0     0     0
SMALL
USER_CHARGES

@<TRIPOS>ATOM
      1 C1          0.0577    1.0644   -0.1438 C.ar      1 <0>        -0.1078
      2 C2          1.1788    1.8731   -0.1497 C.ar      1 <0>        -0.1102
      3 C3          2.4386    1.3088   -0.0774 C.ar      1 <0>        -0.0947
      4 C4          2.5773   -0.0644    0.0012 C.ar      1 <0>        -0.0903
      5 C5          1.4563   -0.8731    0.0079 C.ar      1 <0>        -0.1122
      6 C6          0.1965   -0.3088   -0.0657 C.ar      1 <0>        -0.1161
      7 C7          3.9508   -0.6797    0.0790 C.3       1 <0>         0.2039
      8 C8          4.5451   -0.8603   -1.3319 C.3       1 <0>        -0.1236
      9 C9          5.7892   -0.0012   -1.3157 C.2       1 <0>         0.1479
     10 N1          5.9091    0.5609   -0.1632 N.2       1 <0>        -0.2260
     11 N2          4.8938    0.2398    0.7354 N.am      1 <0>        -0.4689
     12 C10         4.7918    0.6969    1.9992 C.2       1 <0>         0.7444
     13 O1          3.8505    0.3626    2.6925 O.2       1 <0>        -0.5738
     14 N3          5.7332    1.5245    2.4945 N.am      1 <0>        -0.6108
     15 C11         6.7816    2.0846    1.6270 C.3       1 <0>         0.0353
     16 C12         6.8261    3.6020    1.8403 C.3       1 <0>         0.0474
     17 O2          6.9443    3.8775    3.2382 O.3       1 <0>        -0.3766
     18 C13         5.8378    3.4217    4.0202 C.3       1 <0>         0.0463
     19 C14         5.7394    1.8995    3.9174 C.3       1 <0>         0.0924
     20 C15         6.7220    0.1667   -2.4454 C.ar      1 <0>        -0.0520
     21 C16         6.4858   -0.4918   -3.6542 C.ar      1 <0>        -0.0963
     22 C17         7.3635   -0.3296   -4.7083 C.ar      1 <0>         0.0962
     23 C18         8.4769    0.4841   -4.5684 C.ar      1 <0>        -0.0986
     24 C19         8.7174    1.1388   -3.3744 C.ar      1 <0>        -0.1228
     25 C20         7.8444    0.9907   -2.3133 C.ar      1 <0>         0.1283
     26 F1          8.0776    1.6358   -1.1494 F         1 <0>        -0.1161
     27 F2          7.1365   -0.9658   -5.8783 F         1 <0>        -0.1252
     28 C21         3.8986   -2.0172    0.8201 C.3       1 <0>        -0.1161
     29 C22         3.5299   -1.7744    2.2851 C.3       1 <0>        -0.1593
     30 C23         3.2965   -3.1166    2.9814 C.3       1 <0>        -0.0182
     31 N4          2.9425   -2.8835    4.3879 N.4       1 <0>        -0.6337
     32 H1         -0.9267    1.5055   -0.1958 H         1 <0>         0.1270
     33 H2          1.0704    2.9459   -0.2111 H         1 <0>         0.1250
     34 H3          3.3145    1.9406   -0.0827 H         1 <0>         0.1118
     35 H4          1.5647   -1.9459    0.0690 H         1 <0>         0.1231
     36 H5         -0.6794   -0.9406   -0.0609 H         1 <0>         0.1266
     37 H6          4.8038   -1.9046   -1.5071 H         1 <0>         0.1172
     38 H7          3.8459   -0.5063   -2.0895 H         1 <0>         0.1171
     39 H8          7.7459    1.6488    1.8883 H         1 <0>         0.0733
     40 H9          6.5504    1.8671    0.5843 H         1 <0>         0.1581
     41 H10         7.6843    4.0188    1.3133 H         1 <0>         0.1093
     42 H11         5.9095    4.0505    1.4571 H         1 <0>         0.0520
     43 H12         5.9850    3.7087    5.0614 H         1 <0>         0.1102
     44 H13         4.9176    3.8696    3.6449 H         1 <0>         0.0560
     45 H14         4.8182    1.5595    4.3906 H         1 <0>         0.0993
     46 H15         6.5969    1.4447    4.4132 H         1 <0>         0.0777
     47 H16         5.6190   -1.1267   -3.7644 H         1 <0>         0.1529
     48 H17         9.1600    0.6070   -5.3958 H         1 <0>         0.1558
     49 H18         9.5871    1.7709   -3.2723 H         1 <0>         0.1573
     50 H19         3.1488   -2.6595    0.3583 H         1 <0>         0.0928
     51 H20         4.8741   -2.5006    0.7664 H         1 <0>         0.0804
     52 H21         4.3427   -1.2441    2.7813 H         1 <0>         0.1180
     53 H22         2.6205   -1.1755    2.3364 H         1 <0>         0.1092
     54 H23         2.4837   -3.6469    2.4852 H         1 <0>         0.1267
     55 H24         4.2059   -3.7155    2.9301 H         1 <0>         0.1258
     56 H25         2.7886   -3.7687    4.8472 H         1 <0>         0.4345
     57 H26         3.6949   -2.3926    4.8473 H         1 <0>         0.4345
     58 H27         2.1007   -2.3292    4.4354 H         1 <0>         0.4357
@<TRIPOS>BOND
     1    1    6 ar
     2    1    2 ar
     3    1   32 1
     4    2    3 ar
     5    2   33 1
     6    3    4 ar
     7    3   34 1
     8    4    5 ar
     9    4    7 1
    10    5    6 ar
    11    5   35 1
    12    6   36 1
    13    7   11 1
    14    7    8 1
    15    7   28 1
    16    8    9 1
    17    8   37 1
    18    8   38 1
    19    9   10 2
    20    9   20 1
    21   10   11 1
    22   11   12 am
    23   12   13 2
    24   12   14 am
    25   14   19 1
    26   14   15 1
    27   15   16 1
    28   15   39 1
    29   15   40 1
    30   16   17 1
    31   16   41 1
    32   16   42 1
    33   17   18 1
    34   18   19 1
    35   18   43 1
    36   18   44 1
    37   19   45 1
    38   19   46 1
    39   20   25 ar
    40   20   21 ar
    41   21   22 ar
    42   21   47 1
    43   22   23 ar
    44   22   27 1
    45   23   24 ar
    46   23   48 1
    47   24   25 ar
    48   24   49 1
    49   25   26 1
    50   28   29 1
    51   28   50 1
    52   28   51 1
    53   29   30 1
    54   29   52 1
    55   29   53 1
    56   30   31 1
    57   30   54 1
    58   30   55 1
    59   31   56 1
    60   31   57 1
    61   31   58 1
@<TRIPOS>MOLECULE
CHEMBL380367
   48    50     0     0     0
SMALL
USER_CHARGES

@<TRIPOS>ATOM
      1 C1          0.8959    0.4566   -0.9367 C.3       1 <0>        -0.1168
      2 C2          1.0669   -0.9611   -0.4551 C.ar      1 <0>        -0.0830
      3 C3          1.6404   -1.9105   -1.2807 C.ar      1 <0>        -0.1139
      4 C4          1.7890   -3.2071   -0.8351 C.ar      1 <0>        -0.1084
      5 C5          1.3698   -3.5692    0.4395 C.ar      1 <0>        -0.0630
      6 C6          0.8077   -2.6206    1.2637 C.ar      1 <0>        -0.0940
      7 C7          0.6571   -1.3159    0.8136 C.ar      1 <0>        -0.0827
      8 C8          0.0355   -0.2808    1.7154 C.3       1 <0>        -0.1216
      9 C9          0.3578   -2.9365    2.6681 C.3       1 <0>         0.1237
     10 N1          0.3535   -4.3893    2.8702 N.am      1 <0>        -0.6313
     11 C10         1.5154   -5.1446    2.3729 C.3       1 <0>         0.1422
     12 C11         1.5497   -5.0065    0.8517 C.3       1 <0>        -0.0219
     13 C12         2.8752   -5.5071    0.3384 C.ar      1 <0>        -0.0574
     14 C13         4.0479   -4.8950    0.7414 C.ar      1 <0>        -0.1157
     15 C14         5.2654   -5.3519    0.2723 C.ar      1 <0>        -0.0997
     16 C15         5.3133   -6.4214   -0.6011 C.ar      1 <0>        -0.1456
     17 C16         4.1384   -7.0371   -1.0068 C.ar      1 <0>         0.1081
     18 C17         2.9180   -6.5805   -0.5298 C.ar      1 <0>        -0.1382
     19 O1          4.1829   -8.0893   -1.8658 O.3       1 <0>        -0.4997
     20 C18        -0.6728   -5.0081    3.4870 C.2       1 <0>         0.7144
     21 O2         -0.8079   -6.2119    3.3829 O.2       1 <0>        -0.5793
     22 N2         -1.5492   -4.2924    4.2192 N.am      1 <0>        -0.6357
     23 C19        -2.7263   -4.9456    4.7971 C.3       1 <0>         0.1030
     24 C20        -1.3248   -2.8612    4.4371 C.3       1 <0>         0.0621
     25 H1          1.7850    1.0352   -0.6861 H         1 <0>         0.0711
     26 H2          0.7539    0.4585   -2.0175 H         1 <0>         0.0665
     27 H3          0.0252    0.9014   -0.4550 H         1 <0>         0.0690
     28 H4          1.9707   -1.6374   -2.2719 H         1 <0>         0.1223
     29 H5          2.2348   -3.9477   -1.4826 H         1 <0>         0.1211
     30 H6         -1.0441   -0.2697    1.5658 H         1 <0>         0.0724
     31 H7          0.2559   -0.5249    2.7546 H         1 <0>         0.0662
     32 H8          0.4453    0.7010    1.4781 H         1 <0>         0.0728
     33 H9          1.0403   -2.4732    3.3805 H         1 <0>         0.0797
     34 H10        -0.6478   -2.5457    2.8233 H         1 <0>         0.1207
     35 H11         2.4310   -4.7365    2.8009 H         1 <0>         0.0755
     36 H12         1.4164   -6.1952    2.6456 H         1 <0>         0.0992
     37 H13         0.7489   -5.6064    0.4192 H         1 <0>         0.0956
     38 H14         4.0125   -4.0584    1.4235 H         1 <0>         0.1231
     39 H15         6.1799   -4.8722    0.5886 H         1 <0>         0.1277
     40 H16         6.2646   -6.7776   -0.9678 H         1 <0>         0.1284
     41 H17         2.0022   -7.0613   -0.8405 H         1 <0>         0.1292
     42 H18         4.2509   -8.9500   -1.4303 H         1 <0>         0.3921
     43 H19        -2.4822   -5.3212    5.7908 H         1 <0>         0.0551
     44 H20        -3.5417   -4.2261    4.8708 H         1 <0>         0.0699
     45 H21        -3.0308   -5.7757    4.1597 H         1 <0>         0.0769
     46 H22        -1.7874   -2.2938    3.6295 H         1 <0>         0.0621
     47 H23        -1.7665   -2.5649    5.3886 H         1 <0>         0.0736
     48 H24        -0.2537   -2.6600    4.4554 H         1 <0>         0.0840
@<TRIPOS>BOND
     1    1    2 1
     2    1   25 1
     3    1   26 1
     4    1   27 1
     5    2    7 ar
     6    2    3 ar
     7    3    4 ar
     8    3   28 1
     9    4    5 ar
    10    4   29 1
    11    5   12 1
    12    5    6 ar
    13    6    7 ar
    14    6    9 1
    15    7    8 1
    16    8   30 1
    17    8   31 1
    18    8   32 1
    19    9   10 1
    20    9   33 1
    21    9   34 1
    22   10   11 1
    23   10   20 am
    24   11   12 1
    25   11   35 1
    26   11   36 1
    27   12   13 1
    28   12   37 1
    29   13   18 ar
    30   13   14 ar
    31   14   15 ar
    32   14   38 1
    33   15   16 ar
    34   15   39 1
    35   16   17 ar
    36   16   40 1
    37   17   18 ar
    38   17   19 1
    39   18   41 1
    40   19   42 1
    41   20   21 2
    42   20   22 am
    43   22   23 1
    44   22   24 1
    45   23   43 1
    46   23   44 1
    47   23   45 1
    48   24   46 1
    49   24   47 1
    50   24   48 1
@<TRIPOS>MOLECULE
CHEMBL380367__1
   48    50     0     0     0
SMALL
USER_CHARGES

@<TRIPOS>ATOM
      1 C1         -0.1949    1.9158    0.9789 C.3       1 <0>        -0.1174
      2 C2          0.2362    0.5010    0.6899 C.ar      1 <0>        -0.0817
      3 C3          0.9045    0.2049   -0.4837 C.ar      1 <0>        -0.1144
      4 C4          1.3014   -1.0909   -0.7388 C.ar      1 <0>        -0.1082
      5 C5          1.0324   -2.1052    0.1724 C.ar      1 <0>        -0.0633
      6 C6          0.3585   -1.8104    1.3361 C.ar      1 <0>        -0.0901
      7 C7         -0.0292   -0.5032    1.5979 C.ar      1 <0>        -0.0829
      8 C8         -0.7504   -0.1798    2.8810 C.3       1 <0>        -0.1223
      9 C9          0.0077   -2.8657    2.3548 C.3       1 <0>         0.0967
     10 N1          0.7218   -4.1087    2.0442 N.am      1 <0>        -0.6389
     11 C10         0.7434   -4.5427    0.6375 C.3       1 <0>         0.1452
     12 C11         1.5088   -3.4930   -0.1666 C.3       1 <0>        -0.0233
     13 C12         1.2973   -3.7442   -1.6374 C.ar      1 <0>        -0.0580
     14 C13         0.0243   -3.6779   -2.1735 C.ar      1 <0>        -0.1142
     15 C14        -0.1731   -3.9078   -3.5223 C.ar      1 <0>        -0.0992
     16 C15         0.9016   -4.2048   -4.3382 C.ar      1 <0>        -0.1450
     17 C16         2.1796   -4.2718   -3.8029 C.ar      1 <0>         0.1078
     18 C17         2.3758   -4.0347   -2.4499 C.ar      1 <0>        -0.1390
     19 O1          3.2383   -4.5637   -4.6034 O.3       1 <0>        -0.4988
     20 C18         1.3335   -4.8252    3.0081 C.2       1 <0>         0.7177
     21 O2          1.4079   -6.0349    2.9117 O.2       1 <0>        -0.5719
     22 N2          1.8626   -4.2006    4.0788 N.am      1 <0>        -0.6338
     23 C19         2.6987   -4.9465    5.0227 C.3       1 <0>         0.0990
     24 C20         1.6018   -2.7759    4.2987 C.3       1 <0>         0.0644
     25 H1          0.6013    2.4368    1.5107 H         1 <0>         0.0712
     26 H2         -0.4031    2.4310    0.0412 H         1 <0>         0.0666
     27 H3         -1.0947    1.9030    1.5940 H         1 <0>         0.0694
     28 H4          1.1148    0.9863   -1.1990 H         1 <0>         0.1220
     29 H5          1.8256   -1.3196   -1.6549 H         1 <0>         0.1201
     30 H6         -1.8251   -0.2808    2.7291 H         1 <0>         0.0743
     31 H7         -0.4277   -0.8676    3.6625 H         1 <0>         0.0645
     32 H8         -0.5202    0.8430    3.1793 H         1 <0>         0.0729
     33 H9          0.2950   -2.5208    3.3481 H         1 <0>         0.1399
     34 H10        -1.0665   -3.0491    2.3319 H         1 <0>         0.0746
     35 H11         1.2449   -5.5070    0.5568 H         1 <0>         0.0960
     36 H12        -0.2764   -4.6240    0.2611 H         1 <0>         0.0756
     37 H13         2.5719   -3.5725    0.0605 H         1 <0>         0.0924
     38 H14        -0.8172   -3.4466   -1.5373 H         1 <0>         0.1235
     39 H15        -1.1683   -3.8555   -3.9386 H         1 <0>         0.1281
     40 H16         0.7469   -4.3850   -5.3918 H         1 <0>         0.1287
     41 H17         3.3704   -4.0816   -2.0317 H         1 <0>         0.1284
     42 H18         3.6584   -3.7875   -4.9986 H         1 <0>         0.3911
     43 H19         3.7403   -4.8936    4.7058 H         1 <0>         0.0546
     44 H20         2.5992   -4.5126    6.0176 H         1 <0>         0.0703
     45 H21         2.3787   -5.9882    5.0469 H         1 <0>         0.0805
     46 H22         0.5873   -2.6463    4.6758 H         1 <0>         0.0664
     47 H23         2.3126   -2.3845    5.0264 H         1 <0>         0.0789
     48 H24         1.7113   -2.2370    3.3577 H         1 <0>         0.0815
@<TRIPOS>BOND
     1    1    2 1
     2    1   25 1
     3    1   26 1
     4    1   27 1
     5    2    7 ar
     6    2    3 ar
     7    3    4 ar
     8    3   28 1
     9    4    5 ar
    10    4   29 1
    11    5   12 1
    12    5    6 ar
    13    6    7 ar
    14    6    9 1
    15    7    8 1
    16    8   30 1
    17    8   31 1
    18    8   32 1
    19    9   10 1
    20    9   33 1
    21    9   34 1
    22   10   11 1
    23   10   20 am
    24   11   12 1
    25   11   35 1
    26   11   36 1
    27   12   13 1
    28   12   37 1
    29   13   18 ar
    30   13   14 ar
    31   14   15 ar
    32   14   38 1
    33   15   16 ar
    34   15   39 1
    35   16   17 ar
    36   16   40 1
    37   17   18 ar
    38   17   19 1
    39   18   41 1
    40   19   42 1
    41   20   21 2
    42   20   22 am
    43   22   23 1
    44   22   24 1
    45   23   43 1
    46   23   44 1
    47   23   45 1
    48   24   46 1
    49   24   47 1
    50   24   48 1
@<TRIPOS>MOLECULE
CHEMBL1222153
   33    35     0     0     0
SMALL
USER_CHARGES

@<TRIPOS>ATOM
      1 C1         -0.0168    1.3894    0.0097 C.ar      1 <0>        -0.1164
      2 C2          1.1704    2.0931    0.0021 C.ar      1 <0>        -0.0638
      3 C3          2.3775    1.4178   -0.0135 C.ar      1 <0>        -0.1864
      4 C4          2.4023    0.0348   -0.0216 C.ar      1 <0>        -0.0638
      5 C5          1.2212   -0.6792   -0.0137 C.ar      1 <0>        -0.1165
      6 C6          0.0021   -0.0041    0.0020 C.ar      1 <0>        -0.0038
      7 C7         -1.2708   -0.7659    0.0106 C.ar      1 <0>        -0.0786
      8 C8         -2.4896   -0.0891    0.0205 C.ar      1 <0>        -0.0706
      9 C9         -3.6712   -0.7989    0.0282 C.ar      1 <0>        -0.1489
     10 C10        -3.6486   -2.1888    0.0263 C.ar      1 <0>         0.1703
     11 C11        -2.4345   -2.8652    0.0159 C.ar      1 <0>        -0.1220
     12 C12        -1.2503   -2.1596    0.0029 C.ar      1 <0>        -0.0653
     13 C13        -2.4160   -4.3720    0.0129 C.3       1 <0>        -0.0785
     14 C14        -3.5987   -4.8990    0.8262 C.3       1 <0>        -0.1395
     15 C15        -4.8633   -4.2027    0.4010 C.2       1 <0>         0.5206
     16 O1         -5.9099   -4.8156    0.3892 O.2       1 <0>        -0.5218
     17 N1         -4.8468   -2.9083    0.0344 N.am      1 <0>        -0.6643
     18 C16         3.6706    2.1917   -0.0222 C.3       1 <0>         0.5077
     19 F1          4.0838    2.4242    1.2940 F         1 <0>        -0.1759
     20 F2          4.6507    1.4547   -0.6954 F         1 <0>        -0.1765
     21 F3          3.4776    3.4149   -0.6732 F         1 <0>        -0.1766
     22 H1         -0.9587    1.9176    0.0260 H         1 <0>         0.1383
     23 H2          1.1570    3.1730    0.0081 H         1 <0>         0.1389
     24 H3          3.3476   -0.4873   -0.0345 H         1 <0>         0.1389
     25 H4          1.2416   -1.7589   -0.0204 H         1 <0>         0.1381
     26 H5         -2.5080    0.9907    0.0225 H         1 <0>         0.1347
     27 H6         -4.6155   -0.2747    0.0360 H         1 <0>         0.1342
     28 H7         -0.3074   -2.6862   -0.0089 H         1 <0>         0.1355
     29 H8         -2.4902   -4.7341   -1.0126 H         1 <0>         0.0862
     30 H9         -1.4846   -4.7246    0.4559 H         1 <0>         0.0947
     31 H10        -3.7026   -5.9713    0.6608 H         1 <0>         0.1123
     32 H11        -3.4214   -4.7127    1.8854 H         1 <0>         0.1059
     33 H12        -5.6726   -2.4712   -0.2260 H         1 <0>         0.4128
@<TRIPOS>BOND
     1    1    6 ar
     2    1    2 ar
     3    1   22 1
     4    2    3 ar
     5    2   23 1
     6    3    4 ar
     7    3   18 1
     8    4    5 ar
     9    4   24 1
    10    5    6 ar
    11    5   25 1
    12    6    7 1
    13    7   12 ar
    14    7    8 ar
    15    8    9 ar
    16    8   26 1
    17    9   10 ar
    18    9   27 1
    19   10   17 1
    20   10   11 ar
    21   11   12 ar
    22   11   13 1
    23   12   28 1
    24   13   14 1
    25   13   29 1
    26   13   30 1
    27   14   15 1
    28   14   31 1
    29   14   32 1
    30   15   16 2
    31   15   17 am
    32   17   33 1
    33   18   19 1
    34   18   20 1
    35   18   21 1
@<TRIPOS>MOLECULE
CHEMBL240704
   58    61     0     0     0
SMALL
USER_CHARGES

@<TRIPOS>ATOM
      1 C1         -0.4484    1.6286   -0.5209 C.3       1 <0>        -0.1700
      2 C2         -0.3026    0.1428   -0.3156 C.2       1 <0>         0.5516
      3 O1         -0.3350   -0.3208    0.8049 O.2       1 <0>        -0.5089
      4 N1         -0.1360   -0.6709   -1.3770 N.am      1 <0>        -0.4637
      5 C3          0.1153   -2.1195   -1.3140 C.3       1 <0>         0.1870
      6 C4          0.2217   -2.5328   -2.7953 C.3       1 <0>        -0.1248
      7 C5          0.0134   -1.2394   -3.5501 C.2       1 <0>         0.1337
      8 N2         -0.1796   -0.2791   -2.7135 N.2       1 <0>        -0.2129
      9 C6          0.0235   -1.0999   -5.0179 C.ar      1 <0>        -0.0483
     10 C7          0.2320   -2.2187   -5.8277 C.ar      1 <0>        -0.1005
     11 C8          0.2397   -2.0806   -7.2019 C.ar      1 <0>         0.0952
     12 C9          0.0411   -0.8355   -7.7778 C.ar      1 <0>        -0.1008
     13 C10        -0.1660    0.2765   -6.9825 C.ar      1 <0>        -0.1240
     14 C11        -0.1815    0.1525   -5.6061 C.ar      1 <0>         0.1277
     15 F1         -0.3890    1.2391   -4.8306 F         1 <0>        -0.1130
     16 F2          0.4416   -3.1616   -7.9867 F         1 <0>        -0.1258
     17 C12        -1.0524   -2.8396   -0.6366 C.3       1 <0>        -0.1189
     18 C13        -2.3576   -2.4747   -1.3467 C.3       1 <0>        -0.1512
     19 C14        -3.5385   -3.0824   -0.5872 C.3       1 <0>        -0.0022
     20 N3         -4.7917   -2.7321   -1.2690 N.4       1 <0>        -0.3941
     21 C15        -5.0829   -1.2841   -1.1093 C.3       1 <0>        -0.0048
     22 C16        -6.6040   -1.1650   -1.3445 C.3       1 <0>        -0.1769
     23 C17        -7.1701   -2.5634   -1.0225 C.3       1 <0>         0.0797
     24 H1         -7.6512   -2.9890   -1.9031 H         1 <0>         0.1258
     25 C18        -5.9434   -3.4098   -0.6199 C.3       1 <0>        -0.0328
     26 F3         -8.0795   -2.4871    0.0379 F         1 <0>        -0.1757
     27 C19         1.4065   -2.4027   -0.5903 C.ar      1 <0>        -0.0955
     28 C20         1.5641   -3.5876    0.1040 C.ar      1 <0>        -0.1063
     29 C21         2.7485   -3.8474    0.7678 C.ar      1 <0>        -0.1137
     30 C22         3.7754   -2.9225    0.7370 C.ar      1 <0>        -0.1067
     31 C23         3.6181   -1.7380    0.0419 C.ar      1 <0>        -0.1117
     32 C24         2.4353   -1.4801   -0.6255 C.ar      1 <0>        -0.1015
     33 H2          0.5353    2.0973   -0.4951 H         1 <0>         0.1009
     34 H3         -0.9158    1.8178   -1.4872 H         1 <0>         0.0930
     35 H4         -1.0703    2.0455    0.2713 H         1 <0>         0.0957
     36 H5          1.2083   -2.9447   -3.0074 H         1 <0>         0.1146
     37 H6         -0.5567   -3.2527   -3.0482 H         1 <0>         0.1091
     38 H7          0.3872   -3.1894   -5.3804 H         1 <0>         0.1513
     39 H8          0.0484   -0.7333   -8.8530 H         1 <0>         0.1550
     40 H9         -0.3197    1.2436   -7.4380 H         1 <0>         0.1562
     41 H10        -0.8969   -3.9170   -0.6931 H         1 <0>         0.0949
     42 H11        -1.1100   -2.5351    0.4085 H         1 <0>         0.1010
     43 H12        -2.4641   -1.3904   -1.3766 H         1 <0>         0.0871
     44 H13        -2.3395   -2.8663   -2.3638 H         1 <0>         0.0888
     45 H14        -3.4320   -4.1668   -0.5572 H         1 <0>         0.1355
     46 H15        -3.5566   -2.6909    0.4299 H         1 <0>         0.1332
     47 H16        -4.8268   -0.9536   -0.1027 H         1 <0>         0.1374
     48 H17        -4.5367   -0.7024   -1.8519 H         1 <0>         0.1388
     49 H18        -7.0333   -0.4194   -0.6752 H         1 <0>         0.1283
     50 H19        -6.8073   -0.9042   -2.3831 H         1 <0>         0.1168
     51 H20        -6.0451   -4.4285   -0.9939 H         1 <0>         0.1497
     52 H21        -5.8220   -3.4119    0.4633 H         1 <0>         0.1467
     53 H22         0.7618   -4.3102    0.1282 H         1 <0>         0.1229
     54 H23         2.8714   -4.7728    1.3109 H         1 <0>         0.1283
     55 H24         4.7005   -3.1252    1.2562 H         1 <0>         0.1283
     56 H25         4.4203   -1.0153    0.0180 H         1 <0>         0.1266
     57 H26         2.3138   -0.5564   -1.1716 H         1 <0>         0.1141
     58 H27        -4.7424   -2.9783   -2.2463 H         1 <0>         0.4296
@<TRIPOS>BOND
     1    1    2 1
     2    1   33 1
     3    1   34 1
     4    1   35 1
     5    2    3 2
     6    2    4 am
     7    4    8 1
     8    4    5 1
     9    5    6 1
    10    5   17 1
    11    5   27 1
    12    6    7 1
    13    6   36 1
    14    6   37 1
    15    7    8 2
    16    7    9 1
    17    9   14 ar
    18    9   10 ar
    19   10   11 ar
    20   10   38 1
    21   11   12 ar
    22   11   16 1
    23   12   13 ar
    24   12   39 1
    25   13   14 ar
    26   13   40 1
    27   14   15 1
    28   17   18 1
    29   17   41 1
    30   17   42 1
    31   18   19 1
    32   18   43 1
    33   18   44 1
    34   19   20 1
    35   19   45 1
    36   19   46 1
    37   20   25 1
    38   20   21 1
    39   20   58 1
    40   21   22 1
    41   21   47 1
    42   21   48 1
    43   22   23 1
    44   22   49 1
    45   22   50 1
    46   23   24 1
    47   23   25 1
    48   23   26 1
    49   25   51 1
    50   25   52 1
    51   27   32 ar
    52   27   28 ar
    53   28   29 ar
    54   28   53 1
    55   29   30 ar
    56   29   54 1
    57   30   31 ar
    58   30   55 1
    59   31   32 ar
    60   31   56 1
    61   32   57 1
@<TRIPOS>MOLECULE
CHEMBL240704__1
   57    60     0     0     0
SMALL
USER_CHARGES

@<TRIPOS>ATOM
      1 C1         -0.5519    1.6219    0.4389 C.3       1 <0>        -0.1632
      2 C2         -0.3184    0.1391    0.3054 C.2       1 <0>         0.5519
      3 O1          0.8108   -0.3028    0.3419 O.2       1 <0>        -0.5102
      4 N1         -1.3641   -0.6960    0.1454 N.am      1 <0>        -0.4581
      5 C3         -1.2733   -2.1451   -0.0942 C.3       1 <0>         0.1845
      6 C4         -2.7465   -2.5874   -0.1973 C.3       1 <0>        -0.1215
      7 C5         -3.5259   -1.3069    0.0005 C.2       1 <0>         0.1282
      8 N2         -2.7077   -0.3293    0.1858 N.2       1 <0>        -0.2090
      9 C6         -4.9960   -1.1955   -0.0107 C.ar      1 <0>        -0.0363
     10 C7         -5.7844   -2.3312   -0.2101 C.ar      1 <0>        -0.0986
     11 C8         -7.1610   -2.2193   -0.2189 C.ar      1 <0>         0.0923
     12 C9         -7.7605   -0.9838   -0.0304 C.ar      1 <0>        -0.1068
     13 C10        -6.9865    0.1447    0.1676 C.ar      1 <0>        -0.1262
     14 C11        -5.6080    0.0471    0.1842 C.ar      1 <0>         0.1269
     15 F1         -4.8534    1.1499    0.3829 F         1 <0>        -0.1129
     16 F2         -7.9250   -3.3167   -0.4121 F         1 <0>        -0.1292
     17 C12        -0.5825   -2.8427    1.0793 C.3       1 <0>        -0.1216
     18 C13        -1.2998   -2.4809    2.3815 C.3       1 <0>        -0.1106
     19 C14        -0.5290   -3.0645    3.5673 C.3       1 <0>         0.0468
     20 N3         -1.2176   -2.7171    4.8176 N.3       1 <0>        -0.5067
     21 C15        -1.0051   -1.2880    5.1631 C.3       1 <0>         0.0320
     22 C16        -1.2894   -1.2077    6.6784 C.3       1 <0>        -0.1514
     23 C17        -1.0497   -2.6368    7.2074 C.3       1 <0>         0.0846
     24 H1         -1.9648   -3.0377    7.6431 H         1 <0>         0.0983
     25 C18        -0.6407   -3.4603    5.9673 C.3       1 <0>         0.0072
     26 F3         -0.0204   -2.6379    8.1549 F         1 <0>        -0.2089
     27 C19        -0.5442   -2.4249   -1.3830 C.ar      1 <0>        -0.0842
     28 C20         0.1726   -3.5976   -1.5311 C.ar      1 <0>        -0.1039
     29 C21         0.8414   -3.8542   -2.7133 C.ar      1 <0>        -0.1160
     30 C22         0.7931   -2.9384   -3.7477 C.ar      1 <0>        -0.1141
     31 C23         0.0756   -1.7662   -3.6000 C.ar      1 <0>        -0.1157
     32 C24        -0.5968   -1.5115   -2.4193 C.ar      1 <0>        -0.1033
     33 H2          0.4044    2.1309    0.5593 H         1 <0>         0.0924
     34 H3         -1.0509    1.9932   -0.4563 H         1 <0>         0.0923
     35 H4         -1.1781    1.8142    1.3101 H         1 <0>         0.0939
     36 H5         -2.9505   -3.0112   -1.1805 H         1 <0>         0.1079
     37 H6         -2.9858   -3.3056    0.5869 H         1 <0>         0.1133
     38 H7         -5.3186   -3.2944   -0.3575 H         1 <0>         0.1519
     39 H8         -8.8374   -0.9023   -0.0386 H         1 <0>         0.1514
     40 H9         -7.4604    1.1042    0.3135 H         1 <0>         0.1533
     41 H10        -0.6185   -3.9221    0.9325 H         1 <0>         0.0827
     42 H11         0.4565   -2.5179    1.1344 H         1 <0>         0.0883
     43 H12        -1.3504   -1.3965    2.4792 H         1 <0>         0.0626
     44 H13        -2.3092   -2.8919    2.3666 H         1 <0>         0.0720
     45 H14        -0.4784   -4.1489    3.4696 H         1 <0>         0.0780
     46 H15         0.4805   -2.6535    3.5822 H         1 <0>         0.0410
     47 H16         0.0236   -0.9950    4.9533 H         1 <0>         0.0489
     48 H17        -1.7013   -0.6560    4.6118 H         1 <0>         0.0860
     49 H18        -0.6039   -0.5074    7.1556 H         1 <0>         0.0854
     50 H19        -2.3222   -0.9072    6.8544 H         1 <0>         0.0879
     51 H20        -1.0625   -4.4639    6.0214 H         1 <0>         0.0955
     52 H21         0.4450   -3.5073    5.8833 H         1 <0>         0.0593
     53 H22         0.2104   -4.3131   -0.7230 H         1 <0>         0.1259
     54 H23         1.4020   -4.7701   -2.8287 H         1 <0>         0.1255
     55 H24         1.3162   -3.1387   -4.6711 H         1 <0>         0.1239
     56 H25         0.0381   -1.0505   -4.4079 H         1 <0>         0.1229
     57 H26        -1.1605   -0.5973   -2.3052 H         1 <0>         0.1138
@<TRIPOS>BOND
     1    1    2 1
     2    1   33 1
     3    1   34 1
     4    1   35 1
     5    2    3 2
     6    2    4 am
     7    4    8 1
     8    4    5 1
     9    5    6 1
    10    5   17 1
    11    5   27 1
    12    6    7 1
    13    6   36 1
    14    6   37 1
    15    7    8 2
    16    7    9 1
    17    9   14 ar
    18    9   10 ar
    19   10   11 ar
    20   10   38 1
    21   11   12 ar
    22   11   16 1
    23   12   13 ar
    24   12   39 1
    25   13   14 ar
    26   13   40 1
    27   14   15 1
    28   17   18 1
    29   17   41 1
    30   17   42 1
    31   18   19 1
    32   18   43 1
    33   18   44 1
    34   19   20 1
    35   19   45 1
    36   19   46 1
    37   20   25 1
    38   20   21 1
    39   21   22 1
    40   21   47 1
    41   21   48 1
    42   22   23 1
    43   22   49 1
    44   22   50 1
    45   23   24 1
    46   23   25 1
    47   23   26 1
    48   25   51 1
    49   25   52 1
    50   27   32 ar
    51   27   28 ar
    52   28   29 ar
    53   28   53 1
    54   29   30 ar
    55   29   54 1
    56   30   31 ar
    57   30   55 1
    58   31   32 ar
    59   31   56 1
    60   32   57 1
@<TRIPOS>MOLECULE
CHEMBL248244
   54    57     0     0     0
SMALL
USER_CHARGES

@<TRIPOS>ATOM
      1 C1         -0.3882    1.6339    0.5398 C.3       1 <0>        -0.1935
      2 C2         -0.2126    0.1470    0.3685 C.2       1 <0>         0.4361
      3 O1          0.9002   -0.3397    0.3903 O.2       1 <0>        -0.4547
      4 C3         -1.3382   -0.6780    0.1832 C.2       1 <0>        -0.0691
      5 N1         -2.5791   -0.2941    0.2211 N.2       1 <0>        -0.1293
      6 N2         -3.4594   -1.1991    0.0268 N.pl3     1 <0>        -0.3926
      7 C4         -2.8171   -2.5035   -0.2006 C.3       1 <0>         0.0670
      8 C5         -1.3122   -2.1676   -0.1019 C.3       1 <0>         0.0063
      9 C6         -0.6586   -2.9329    1.0505 C.3       1 <0>        -0.1049
     10 C7         -1.3673   -2.5845    2.3610 C.3       1 <0>        -0.1085
     11 C8         -0.7503   -3.3919    3.5047 C.3       1 <0>         0.0202
     12 N3         -1.4307   -3.0574    4.7630 N.3       1 <0>        -0.4665
     13 C9         -0.7118   -1.9913    5.4853 C.3       1 <0>        -0.0259
     14 C10        -0.9758   -2.7688    6.7824 C.3       1 <0>         0.0624
     15 C11        -1.0312   -3.9805    5.8415 C.3       1 <0>        -0.0259
     16 F1         -2.1958   -2.4632    7.3952 F         1 <0>        -0.1845
     17 C12        -0.6083   -2.4541   -1.4032 C.ar      1 <0>        -0.0653
     18 C13         0.4474   -3.3460   -1.4362 C.ar      1 <0>        -0.1019
     19 C14         1.0932   -3.6088   -2.6298 C.ar      1 <0>        -0.1161
     20 C15         0.6830   -2.9801   -3.7906 C.ar      1 <0>        -0.1171
     21 C16        -0.3733   -2.0889   -3.7578 C.ar      1 <0>        -0.1167
     22 C17        -1.0218   -1.8294   -2.5649 C.ar      1 <0>        -0.1124
     23 C18        -4.8386   -0.9812    0.0303 C.ar      1 <0>         0.1620
     24 C19        -5.6068   -1.3651   -1.0616 C.ar      1 <0>        -0.1332
     25 C20        -6.9726   -1.1476   -1.0548 C.ar      1 <0>         0.1106
     26 C21        -7.5746   -0.5478    0.0391 C.ar      1 <0>        -0.1204
     27 C22        -6.8130   -0.1644    1.1275 C.ar      1 <0>        -0.1087
     28 C23        -5.4477   -0.3840    1.1299 C.ar      1 <0>         0.1008
     29 F2         -4.7051   -0.0145    2.1963 F         1 <0>        -0.1179
     30 F3         -7.7205   -1.5203   -2.1164 F         1 <0>        -0.1265
     31 H1          0.5873    2.1024    0.6698 H         1 <0>         0.0837
     32 H2         -0.8745    2.0466   -0.3442 H         1 <0>         0.0911
     33 H3         -1.0045    1.8282    1.4176 H         1 <0>         0.0930
     34 H4         -3.1082   -3.2167    0.5706 H         1 <0>         0.1000
     35 H5         -3.0596   -2.8854   -1.1923 H         1 <0>         0.0936
     36 H6         -0.7397   -4.0044    0.8673 H         1 <0>         0.0742
     37 H7          0.3930   -2.6549    1.1210 H         1 <0>         0.0883
     38 H8         -1.2521   -1.5198    2.5644 H         1 <0>         0.0640
     39 H9         -2.4269   -2.8256    2.2763 H         1 <0>         0.0669
     40 H10        -0.8654   -4.4565    3.3013 H         1 <0>         0.0758
     41 H11         0.3093   -3.1507    3.5894 H         1 <0>         0.0505
     42 H12         0.3448   -1.9268    5.2252 H         1 <0>         0.0882
     43 H13        -1.2155   -1.0255    5.4478 H         1 <0>         0.0967
     44 H14        -0.1345   -2.7799    7.4753 H         1 <0>         0.1061
     45 H15        -1.8057   -4.7005    6.1058 H         1 <0>         0.0978
     46 H16        -0.0600   -4.4469    5.6764 H         1 <0>         0.0870
     47 H17         0.7679   -3.8372   -0.5293 H         1 <0>         0.1268
     48 H18         1.9184   -4.3051   -2.6554 H         1 <0>         0.1240
     49 H19         1.1879   -3.1849   -4.7230 H         1 <0>         0.1226
     50 H20        -0.6935   -1.5975   -4.6646 H         1 <0>         0.1221
     51 H21        -1.8494   -1.1359   -2.5399 H         1 <0>         0.1126
     52 H22        -5.1381   -1.8325   -1.9150 H         1 <0>         0.1503
     53 H23        -8.6413   -0.3788    0.0417 H         1 <0>         0.1541
     54 H24        -7.2856    0.3030    1.9787 H         1 <0>         0.1569
@<TRIPOS>BOND
     1    1    2 1
     2    1   31 1
     3    1   32 1
     4    1   33 1
     5    2    3 2
     6    2    4 1
     7    4    8 1
     8    4    5 2
     9    5    6 1
    10    6    7 1
    11    6   23 1
    12    7    8 1
    13    7   34 1
    14    7   35 1
    15    8    9 1
    16    8   17 1
    17    9   10 1
    18    9   36 1
    19    9   37 1
    20   10   11 1
    21   10   38 1
    22   10   39 1
    23   11   12 1
    24   11   40 1
    25   11   41 1
    26   12   15 1
    27   12   13 1
    28   13   14 1
    29   13   42 1
    30   13   43 1
    31   14   15 1
    32   14   16 1
    33   14   44 1
    34   15   45 1
    35   15   46 1
    36   17   22 ar
    37   17   18 ar
    38   18   19 ar
    39   18   47 1
    40   19   20 ar
    41   19   48 1
    42   20   21 ar
    43   20   49 1
    44   21   22 ar
    45   21   50 1
    46   22   51 1
    47   23   28 ar
    48   23   24 ar
    49   24   25 ar
    50   24   52 1
    51   25   26 ar
    52   25   30 1
    53   26   27 ar
    54   26   53 1
    55   27   28 ar
    56   27   54 1
    57   28   29 1
@<TRIPOS>MOLECULE
CHEMBL248244__1
   55    58     0     0     0
SMALL
USER_CHARGES

@<TRIPOS>ATOM
      1 C1         -0.3882    1.6339    0.5398 C.3       1 <0>        -0.1960
      2 C2         -0.2126    0.1470    0.3685 C.2       1 <0>         0.4351
      3 O1          0.9002   -0.3397    0.3903 O.2       1 <0>        -0.4532
      4 C3         -1.3382   -0.6780    0.1832 C.2       1 <0>        -0.0813
      5 N1         -2.5790   -0.2941    0.2211 N.2       1 <0>        -0.1233
      6 N2         -3.4594   -1.1991    0.0268 N.pl3     1 <0>        -0.3912
      7 C4         -2.8171   -2.5035   -0.2006 C.3       1 <0>         0.0632
      8 C5         -1.3122   -2.1676   -0.1019 C.3       1 <0>         0.0103
      9 C6         -0.6586   -2.9329    1.0505 C.3       1 <0>        -0.1014
     10 C7         -1.3673   -2.5845    2.3610 C.3       1 <0>        -0.1512
     11 C8         -0.7503   -3.3919    3.5047 C.3       1 <0>        -0.0055
     12 N3         -1.4307   -3.0574    4.7630 N.4       1 <0>        -0.4129
     13 C9         -0.8555   -1.8840    5.4467 C.3       1 <0>        -0.0256
     14 C10        -1.0910   -2.6133    6.7768 C.3       1 <0>         0.0589
     15 C11        -0.9828   -3.8734    5.9068 C.3       1 <0>        -0.0225
     16 F1         -2.3600   -2.4047    7.3276 F         1 <0>        -0.1640
     17 C12        -0.6083   -2.4541   -1.4032 C.ar      1 <0>        -0.0762
     18 C13         0.4474   -3.3460   -1.4362 C.ar      1 <0>        -0.1046
     19 C14         1.0932   -3.6088   -2.6298 C.ar      1 <0>        -0.1137
     20 C15         0.6830   -2.9801   -3.7906 C.ar      1 <0>        -0.1098
     21 C16        -0.3733   -2.0889   -3.7578 C.ar      1 <0>        -0.1121
     22 C17        -1.0218   -1.8294   -2.5649 C.ar      1 <0>        -0.1108
     23 C18        -4.8386   -0.9812    0.0303 C.ar      1 <0>         0.1546
     24 C19        -5.6068   -1.3651   -1.0616 C.ar      1 <0>        -0.1321
     25 C20        -6.9726   -1.1476   -1.0548 C.ar      1 <0>         0.1190
     26 C21        -7.5746   -0.5478    0.0391 C.ar      1 <0>        -0.1158
     27 C22        -6.8130   -0.1644    1.1275 C.ar      1 <0>        -0.1057
     28 C23        -5.4476   -0.3840    1.1299 C.ar      1 <0>         0.0943
     29 F2         -4.7051   -0.0145    2.1963 F         1 <0>        -0.1270
     30 F3         -7.7205   -1.5203   -2.1164 F         1 <0>        -0.1207
     31 H1          0.5873    2.1024    0.6698 H         1 <0>         0.0870
     32 H2         -0.8745    2.0466   -0.3442 H         1 <0>         0.0944
     33 H3         -1.0045    1.8282    1.4176 H         1 <0>         0.0919
     34 H4         -3.1082   -3.2167    0.5706 H         1 <0>         0.0955
     35 H5         -3.0596   -2.8854   -1.1923 H         1 <0>         0.1001
     36 H6         -0.7397   -4.0044    0.8673 H         1 <0>         0.0864
     37 H7          0.3930   -2.6549    1.1210 H         1 <0>         0.1016
     38 H8         -1.2521   -1.5198    2.5644 H         1 <0>         0.0884
     39 H9         -2.4269   -2.8256    2.2763 H         1 <0>         0.0825
     40 H10        -0.8654   -4.4565    3.3013 H         1 <0>         0.1336
     41 H11         0.3093   -3.1507    3.5894 H         1 <0>         0.1361
     42 H12         0.1985   -1.7230    5.2204 H         1 <0>         0.1713
     43 H13        -1.4541   -0.9799    5.3352 H         1 <0>         0.1474
     44 H14        -0.2820   -2.4981    7.4982 H         1 <0>         0.1598
     45 H15        -1.6892   -4.6554    6.1854 H         1 <0>         0.1486
     46 H16         0.0373   -4.2433    5.8034 H         1 <0>         0.1713
     47 H17         0.7679   -3.8372   -0.5293 H         1 <0>         0.1235
     48 H18         1.9184   -4.3051   -2.6554 H         1 <0>         0.1269
     49 H19         1.1879   -3.1849   -4.7230 H         1 <0>         0.1271
     50 H20        -0.6935   -1.5975   -4.6646 H         1 <0>         0.1259
     51 H21        -1.8494   -1.1359   -2.5399 H         1 <0>         0.1127
     52 H22        -5.1381   -1.8325   -1.9150 H         1 <0>         0.1525
     53 H23        -8.6413   -0.3788    0.0417 H         1 <0>         0.1584
     54 H24        -7.2856    0.3030    1.9787 H         1 <0>         0.1587
     55 H25        -2.4344   -3.0157    4.6684 H         1 <0>         0.4392
@<TRIPOS>BOND
     1    1    2 1
     2    1   31 1
     3    1   32 1
     4    1   33 1
     5    2    3 2
     6    2    4 1
     7    4    8 1
     8    4    5 2
     9    5    6 1
    10    6    7 1
    11    6   23 1
    12    7    8 1
    13    7   34 1
    14    7   35 1
    15    8    9 1
    16    8   17 1
    17    9   10 1
    18    9   36 1
    19    9   37 1
    20   10   11 1
    21   10   38 1
    22   10   39 1
    23   11   12 1
    24   11   40 1
    25   11   41 1
    26   12   15 1
    27   12   13 1
    28   12   55 1
    29   13   14 1
    30   13   42 1
    31   13   43 1
    32   14   15 1
    33   14   16 1
    34   14   44 1
    35   15   45 1
    36   15   46 1
    37   17   22 ar
    38   17   18 ar
    39   18   19 ar
    40   18   47 1
    41   19   20 ar
    42   19   48 1
    43   20   21 ar
    44   20   49 1
    45   21   22 ar
    46   21   50 1
    47   22   51 1
    48   23   28 ar
    49   23   24 ar
    50   24   25 ar
    51   24   52 1
    52   25   26 ar
    53   25   30 1
    54   26   27 ar
    55   26   53 1
    56   27   28 ar
    57   27   54 1
    58   28   29 1
@<TRIPOS>MOLECULE
CHEMBL248244__2
   54    57     0     0     0
SMALL
USER_CHARGES

@<TRIPOS>ATOM
      1 C1         -0.3236    1.5861    0.1952 C.3       1 <0>        -0.1935
      2 C2         -0.1839    0.0863    0.1482 C.2       1 <0>         0.4356
      3 O1          0.9191   -0.4221    0.1712 O.2       1 <0>        -0.4529
      4 C3         -1.3319   -0.7257    0.0776 C.2       1 <0>        -0.0654
      5 N1         -2.5622   -0.3142    0.1516 N.2       1 <0>        -0.1302
      6 N2         -3.4671   -1.2116    0.0652 N.pl3     1 <0>        -0.3945
      7 C4         -2.8603   -2.5417   -0.1036 C.3       1 <0>         0.0675
      8 C5         -1.3467   -2.2315   -0.1046 C.3       1 <0>         0.0058
      9 C6         -0.7066   -2.6268   -1.4369 C.3       1 <0>        -0.1051
     10 C7         -1.4009   -1.8802   -2.5777 C.3       1 <0>        -0.1097
     11 C8         -0.6824   -2.1793   -3.8949 C.3       1 <0>         0.0198
     12 N3         -1.3490   -1.4625   -4.9902 N.3       1 <0>        -0.4662
     13 C9         -2.3495   -2.3206   -5.6517 C.3       1 <0>        -0.0269
     14 C10        -1.8642   -1.7563   -6.9943 C.3       1 <0>         0.0626
     15 C11        -0.5523   -1.5319   -6.2293 C.3       1 <0>        -0.0257
     16 F1         -2.5075   -0.5774   -7.3863 F         1 <0>        -0.1840
     17 C12        -0.6581   -2.9194    1.0459 C.ar      1 <0>        -0.0642
     18 C13         0.4382   -3.7281    0.8116 C.ar      1 <0>        -0.0996
     19 C14         1.0699   -4.3591    1.8669 C.ar      1 <0>        -0.1168
     20 C15         0.6054   -4.1810    3.1567 C.ar      1 <0>        -0.1171
     21 C16        -0.4903   -3.3716    3.3911 C.ar      1 <0>        -0.1169
     22 C17        -1.1193   -2.7372    2.3362 C.ar      1 <0>        -0.1116
     23 C18        -4.8402   -0.9651    0.1232 C.ar      1 <0>         0.1643
     24 C19        -5.6706   -1.4065   -0.8993 C.ar      1 <0>        -0.1320
     25 C20        -7.0302   -1.1605   -0.8385 C.ar      1 <0>         0.1119
     26 C21        -7.5641   -0.4749    0.2403 C.ar      1 <0>        -0.1211
     27 C22        -6.7405   -0.0342    1.2597 C.ar      1 <0>        -0.1081
     28 C23        -5.3809   -0.2817    1.2082 C.ar      1 <0>         0.0974
     29 F2         -4.5777    0.1441    2.2076 F         1 <0>        -0.1205
     30 F3         -7.8386   -1.5890   -1.8326 F         1 <0>        -0.1261
     31 H1          0.6653    2.0416    0.2475 H         1 <0>         0.0838
     32 H2         -0.8357    1.9316   -0.7028 H         1 <0>         0.0922
     33 H3         -0.9013    1.8698    1.0749 H         1 <0>         0.0925
     34 H4         -3.1233   -3.1944    0.7288 H         1 <0>         0.0950
     35 H5         -3.1605   -2.9853   -1.0530 H         1 <0>         0.0963
     36 H6          0.3516   -2.3661   -1.4231 H         1 <0>         0.0876
     37 H7         -0.8143   -3.7010   -1.5872 H         1 <0>         0.0744
     38 H8         -2.4385   -2.2070   -2.6474 H         1 <0>         0.0587
     39 H9         -1.3700   -0.8083   -2.3822 H         1 <0>         0.0727
     40 H10         0.3552   -1.8525   -3.8251 H         1 <0>         0.0784
     41 H11        -0.7133   -3.2512   -4.0903 H         1 <0>         0.0491
     42 H12        -2.1543   -3.3863   -5.5325 H         1 <0>         0.0873
     43 H13        -3.3784   -2.0507   -5.4137 H         1 <0>         0.0957
     44 H14        -1.7952   -2.4970   -7.7910 H         1 <0>         0.1060
     45 H15        -0.0580   -0.5935   -6.4809 H         1 <0>         0.0990
     46 H16         0.1225   -2.3871   -6.2643 H         1 <0>         0.0875
     47 H17         0.8011   -3.8672   -0.1961 H         1 <0>         0.1259
     48 H18         1.9260   -4.9915    1.6837 H         1 <0>         0.1235
     49 H19         1.0985   -4.6746    3.9811 H         1 <0>         0.1223
     50 H20        -0.8534   -3.2328    4.3988 H         1 <0>         0.1216
     51 H21        -1.9732   -2.1018    2.5198 H         1 <0>         0.1126
     52 H22        -5.2550   -1.9408   -1.7408 H         1 <0>         0.1499
     53 H23        -8.6261   -0.2838    0.2851 H         1 <0>         0.1542
     54 H24        -7.1601    0.5000    2.0993 H         1 <0>         0.1567
@<TRIPOS>BOND
     1    1    2 1
     2    1   31 1
     3    1   32 1
     4    1   33 1
     5    2    3 2
     6    2    4 1
     7    4    8 1
     8    4    5 2
     9    5    6 1
    10    6    7 1
    11    6   23 1
    12    7    8 1
    13    7   34 1
    14    7   35 1
    15    8    9 1
    16    8   17 1
    17    9   10 1
    18    9   36 1
    19    9   37 1
    20   10   11 1
    21   10   38 1
    22   10   39 1
    23   11   12 1
    24   11   40 1
    25   11   41 1
    26   12   15 1
    27   12   13 1
    28   13   14 1
    29   13   42 1
    30   13   43 1
    31   14   15 1
    32   14   16 1
    33   14   44 1
    34   15   45 1
    35   15   46 1
    36   17   22 ar
    37   17   18 ar
    38   18   19 ar
    39   18   47 1
    40   19   20 ar
    41   19   48 1
    42   20   21 ar
    43   20   49 1
    44   21   22 ar
    45   21   50 1
    46   22   51 1
    47   23   28 ar
    48   23   24 ar
    49   24   25 ar
    50   24   52 1
    51   25   26 ar
    52   25   30 1
    53   26   27 ar
    54   26   53 1
    55   27   28 ar
    56   27   54 1
    57   28   29 1
@<TRIPOS>MOLECULE
CHEMBL248244__3
   55    58     0     0     0
SMALL
USER_CHARGES

@<TRIPOS>ATOM
      1 C1         -0.3235    1.5861    0.1951 C.3       1 <0>        -0.1954
      2 C2         -0.1839    0.0863    0.1481 C.2       1 <0>         0.4319
      3 O1          0.9191   -0.4221    0.1711 O.2       1 <0>        -0.4488
      4 C3         -1.3318   -0.7257    0.0776 C.2       1 <0>        -0.0800
      5 N1         -2.5621   -0.3142    0.1516 N.2       1 <0>        -0.1246
      6 N2         -3.4671   -1.2116    0.0652 N.pl3     1 <0>        -0.3915
      7 C4         -2.8603   -2.5417   -0.1036 C.3       1 <0>         0.0642
      8 C5         -1.3467   -2.2315   -0.1046 C.3       1 <0>         0.0097
      9 C6         -0.7067   -2.6268   -1.4369 C.3       1 <0>        -0.1015
     10 C7         -1.4010   -1.8802   -2.5777 C.3       1 <0>        -0.1521
     11 C8         -0.6824   -2.1793   -3.8949 C.3       1 <0>        -0.0060
     12 N3         -1.3490   -1.4625   -4.9901 N.4       1 <0>        -0.4130
     13 C9         -2.4762   -2.2091   -5.5793 C.3       1 <0>        -0.0263
     14 C10        -2.0370   -1.6797   -6.9517 C.3       1 <0>         0.0590
     15 C11        -0.6566   -1.5958   -6.2854 C.3       1 <0>        -0.0226
     16 F1         -2.5865   -0.4383   -7.2895 F         1 <0>        -0.1634
     17 C12        -0.6581   -2.9194    1.0459 C.ar      1 <0>        -0.0750
     18 C13         0.4383   -3.7281    0.8115 C.ar      1 <0>        -0.1024
     19 C14         1.0699   -4.3591    1.8669 C.ar      1 <0>        -0.1144
     20 C15         0.6055   -4.1810    3.1567 C.ar      1 <0>        -0.1099
     21 C16        -0.4903   -3.3716    3.3911 C.ar      1 <0>        -0.1124
     22 C17        -1.1193   -2.7372    2.3362 C.ar      1 <0>        -0.1099
     23 C18        -4.8402   -0.9651    0.1233 C.ar      1 <0>         0.1530
     24 C19        -5.6706   -1.4065   -0.8992 C.ar      1 <0>        -0.1354
     25 C20        -7.0302   -1.1604   -0.8384 C.ar      1 <0>         0.1120
     26 C21        -7.5641   -0.4748    0.2404 C.ar      1 <0>        -0.1141
     27 C22        -6.7404   -0.0342    1.2598 C.ar      1 <0>        -0.1038
     28 C23        -5.3808   -0.2816    1.2083 C.ar      1 <0>         0.1025
     29 F2         -4.5776    0.1441    2.2077 F         1 <0>        -0.1178
     30 F3         -7.8386   -1.5889   -1.8324 F         1 <0>        -0.1246
     31 H1          0.6653    2.0416    0.2474 H         1 <0>         0.0871
     32 H2         -0.8357    1.9316   -0.7029 H         1 <0>         0.0886
     33 H3         -0.9013    1.8698    1.0748 H         1 <0>         0.0963
     34 H4         -3.1233   -3.1944    0.7288 H         1 <0>         0.1013
     35 H5         -3.1606   -2.9852   -1.0529 H         1 <0>         0.0939
     36 H6          0.3516   -2.3661   -1.4231 H         1 <0>         0.0989
     37 H7         -0.8143   -3.7010   -1.5871 H         1 <0>         0.0886
     38 H8         -2.4385   -2.2070   -2.6474 H         1 <0>         0.0834
     39 H9         -1.3700   -0.8083   -2.3822 H         1 <0>         0.0880
     40 H10         0.3551   -1.8525   -3.8251 H         1 <0>         0.1356
     41 H11        -0.7133   -3.2512   -4.0903 H         1 <0>         0.1352
     42 H12        -2.3802   -3.2903   -5.4799 H         1 <0>         0.1706
     43 H13        -3.4527   -1.8412   -5.2642 H         1 <0>         0.1463
     44 H14        -2.1011   -2.4141   -7.7547 H         1 <0>         0.1597
     45 H15        -0.0909   -0.7082   -6.5688 H         1 <0>         0.1495
     46 H16        -0.0749   -2.5133   -6.3744 H         1 <0>         0.1714
     47 H17         0.8011   -3.8672   -0.1961 H         1 <0>         0.1227
     48 H18         1.9260   -4.9915    1.6837 H         1 <0>         0.1263
     49 H19         1.0985   -4.6746    3.9811 H         1 <0>         0.1267
     50 H20        -0.8533   -3.2327    4.3988 H         1 <0>         0.1255
     51 H21        -1.9731   -2.1018    2.5198 H         1 <0>         0.1127
     52 H22        -5.2550   -1.9407   -1.7407 H         1 <0>         0.1447
     53 H23        -8.6261   -0.2838    0.2853 H         1 <0>         0.1582
     54 H24        -7.1600    0.5001    2.0994 H         1 <0>         0.1609
     55 H25        -1.5782   -0.5086   -4.7540 H         1 <0>         0.4404
@<TRIPOS>BOND
     1    1    2 1
     2    1   31 1
     3    1   32 1
     4    1   33 1
     5    2    3 2
     6    2    4 1
     7    4    8 1
     8    4    5 2
     9    5    6 1
    10    6    7 1
    11    6   23 1
    12    7    8 1
    13    7   34 1
    14    7   35 1
    15    8    9 1
    16    8   17 1
    17    9   10 1
    18    9   36 1
    19    9   37 1
    20   10   11 1
    21   10   38 1
    22   10   39 1
    23   11   12 1
    24   11   40 1
    25   11   41 1
    26   12   15 1
    27   12   13 1
    28   12   55 1
    29   13   14 1
    30   13   42 1
    31   13   43 1
    32   14   15 1
    33   14   16 1
    34   14   44 1
    35   15   45 1
    36   15   46 1
    37   17   22 ar
    38   17   18 ar
    39   18   19 ar
    40   18   47 1
    41   19   20 ar
    42   19   48 1
    43   20   21 ar
    44   20   49 1
    45   21   22 ar
    46   21   50 1
    47   22   51 1
    48   23   28 ar
    49   23   24 ar
    50   24   25 ar
    51   24   52 1
    52   25   26 ar
    53   25   30 1
    54   26   27 ar
    55   26   53 1
    56   27   28 ar
    57   27   54 1
    58   28   29 1
@<TRIPOS>MOLECULE
CHEMBL240498
   54    57     0     0     0
SMALL
USER_CHARGES

@<TRIPOS>ATOM
      1 C1         -0.5519    1.6219    0.4389 C.3       1 <0>        -0.1633
      2 C2         -0.3184    0.1391    0.3054 C.2       1 <0>         0.5524
      3 O1          0.8108   -0.3028    0.3419 O.2       1 <0>        -0.5115
      4 N1         -1.3641   -0.6960    0.1454 N.am      1 <0>        -0.4580
      5 C3         -1.2733   -2.1451   -0.0942 C.3       1 <0>         0.1843
      6 C4         -2.7465   -2.5874   -0.1973 C.3       1 <0>        -0.1217
      7 C5         -3.5259   -1.3069    0.0005 C.2       1 <0>         0.1288
      8 N2         -2.7077   -0.3293    0.1858 N.2       1 <0>        -0.2091
      9 C6         -4.9960   -1.1955   -0.0107 C.ar      1 <0>        -0.0368
     10 C7         -5.7844   -2.3312   -0.2101 C.ar      1 <0>        -0.0985
     11 C8         -7.1610   -2.2193   -0.2189 C.ar      1 <0>         0.0922
     12 C9         -7.7605   -0.9838   -0.0304 C.ar      1 <0>        -0.1066
     13 C10        -6.9865    0.1447    0.1676 C.ar      1 <0>        -0.1261
     14 C11        -5.6080    0.0471    0.1842 C.ar      1 <0>         0.1273
     15 F1         -4.8534    1.1499    0.3829 F         1 <0>        -0.1128
     16 F2         -7.9250   -3.3167   -0.4121 F         1 <0>        -0.1292
     17 C12        -0.5825   -2.8427    1.0793 C.3       1 <0>        -0.1215
     18 C13        -1.2998   -2.4809    2.3815 C.3       1 <0>        -0.1078
     19 C14        -0.5290   -3.0645    3.5673 C.3       1 <0>         0.0207
     20 N3         -1.2176   -2.7171    4.8176 N.3       1 <0>        -0.4663
     21 C15        -0.6578   -1.4855    5.4048 C.3       1 <0>        -0.0261
     22 C16        -0.7568   -2.1621    6.7792 C.3       1 <0>         0.0629
     23 C17        -0.6449   -3.4549    5.9590 C.3       1 <0>        -0.0256
     24 F3         -1.9917   -1.9915    7.4140 F         1 <0>        -0.1841
     25 C18        -0.5442   -2.4249   -1.3830 C.ar      1 <0>        -0.0838
     26 C19         0.1726   -3.5976   -1.5311 C.ar      1 <0>        -0.1041
     27 C20         0.8414   -3.8542   -2.7133 C.ar      1 <0>        -0.1161
     28 C21         0.7931   -2.9384   -3.7477 C.ar      1 <0>        -0.1142
     29 C22         0.0756   -1.7662   -3.6000 C.ar      1 <0>        -0.1156
     30 C23        -0.5968   -1.5115   -2.4193 C.ar      1 <0>        -0.1032
     31 H1          0.4044    2.1309    0.5593 H         1 <0>         0.0924
     32 H2         -1.0509    1.9932   -0.4563 H         1 <0>         0.0923
     33 H3         -1.1781    1.8142    1.3101 H         1 <0>         0.0941
     34 H4         -2.9505   -3.0112   -1.1805 H         1 <0>         0.1081
     35 H5         -2.9858   -3.3056    0.5869 H         1 <0>         0.1130
     36 H6         -5.3186   -3.2944   -0.3575 H         1 <0>         0.1517
     37 H7         -8.8374   -0.9023   -0.0386 H         1 <0>         0.1515
     38 H8         -7.4604    1.1042    0.3135 H         1 <0>         0.1535
     39 H9         -0.6185   -3.9221    0.9325 H         1 <0>         0.0820
     40 H10         0.4565   -2.5179    1.1344 H         1 <0>         0.0882
     41 H11        -1.3504   -1.3965    2.4792 H         1 <0>         0.0626
     42 H12        -2.3092   -2.8919    2.3666 H         1 <0>         0.0708
     43 H13        -0.4784   -4.1489    3.4696 H         1 <0>         0.0768
     44 H14         0.4805   -2.6535    3.5822 H         1 <0>         0.0492
     45 H15         0.3669   -1.2828    5.0933 H         1 <0>         0.0873
     46 H16        -1.3103   -0.6188    5.2994 H         1 <0>         0.0961
     47 H17         0.0951   -1.9728    7.4322 H         1 <0>         0.1062
     48 H18        -1.2865   -4.2572    6.3233 H         1 <0>         0.0989
     49 H19         0.3832   -3.7778    5.7954 H         1 <0>         0.0869
     50 H20         0.2104   -4.3131   -0.7230 H         1 <0>         0.1256
     51 H21         1.4020   -4.7701   -2.8287 H         1 <0>         0.1255
     52 H22         1.3162   -3.1387   -4.6711 H         1 <0>         0.1240
     53 H23         0.0381   -1.0505   -4.4079 H         1 <0>         0.1230
     54 H24        -1.1605   -0.5973   -2.3052 H         1 <0>         0.1139
@<TRIPOS>BOND
     1    1    2 1
     2    1   31 1
     3    1   32 1
     4    1   33 1
     5    2    3 2
     6    2    4 am
     7    4    8 1
     8    4    5 1
     9    5    6 1
    10    5   17 1
    11    5   25 1
    12    6    7 1
    13    6   34 1
    14    6   35 1
    15    7    8 2
    16    7    9 1
    17    9   14 ar
    18    9   10 ar
    19   10   11 ar
    20   10   36 1
    21   11   12 ar
    22   11   16 1
    23   12   13 ar
    24   12   37 1
    25   13   14 ar
    26   13   38 1
    27   14   15 1
    28   17   18 1
    29   17   39 1
    30   17   40 1
    31   18   19 1
    32   18   41 1
    33   18   42 1
    34   19   20 1
    35   19   43 1
    36   19   44 1
    37   20   23 1
    38   20   21 1
    39   21   22 1
    40   21   45 1
    41   21   46 1
    42   22   23 1
    43   22   24 1
    44   22   47 1
    45   23   48 1
    46   23   49 1
    47   25   30 ar
    48   25   26 ar
    49   26   27 ar
    50   26   50 1
    51   27   28 ar
    52   27   51 1
    53   28   29 ar
    54   28   52 1
    55   29   30 ar
    56   29   53 1
    57   30   54 1
@<TRIPOS>MOLECULE
CHEMBL240498__1
   55    58     0     0     0
SMALL
USER_CHARGES

@<TRIPOS>ATOM
      1 C1         -0.4484    1.6286   -0.5209 C.3       1 <0>        -0.1699
      2 C2         -0.3026    0.1428   -0.3156 C.2       1 <0>         0.5521
      3 O1         -0.3350   -0.3208    0.8049 O.2       1 <0>        -0.5102
      4 N1         -0.1360   -0.6709   -1.3770 N.am      1 <0>        -0.4636
      5 C3          0.1153   -2.1195   -1.3140 C.3       1 <0>         0.1867
      6 C4          0.2217   -2.5328   -2.7953 C.3       1 <0>        -0.1249
      7 C5          0.0134   -1.2394   -3.5501 C.2       1 <0>         0.1343
      8 N2         -0.1796   -0.2791   -2.7135 N.2       1 <0>        -0.2132
      9 C6          0.0235   -1.0999   -5.0179 C.ar      1 <0>        -0.0487
     10 C7          0.2320   -2.2187   -5.8277 C.ar      1 <0>        -0.1004
     11 C8          0.2397   -2.0806   -7.2019 C.ar      1 <0>         0.0951
     12 C9          0.0411   -0.8355   -7.7778 C.ar      1 <0>        -0.1006
     13 C10        -0.1660    0.2765   -6.9825 C.ar      1 <0>        -0.1240
     14 C11        -0.1815    0.1525   -5.6061 C.ar      1 <0>         0.1280
     15 F1         -0.3890    1.2391   -4.8306 F         1 <0>        -0.1130
     16 F2          0.4416   -3.1616   -7.9867 F         1 <0>        -0.1258
     17 C12        -1.0524   -2.8396   -0.6366 C.3       1 <0>        -0.1183
     18 C13        -2.3576   -2.4747   -1.3467 C.3       1 <0>        -0.1502
     19 C14        -3.5385   -3.0824   -0.5872 C.3       1 <0>        -0.0048
     20 N3         -4.7917   -2.7321   -1.2690 N.4       1 <0>        -0.4125
     21 C15        -5.3472   -1.4336   -0.8444 C.3       1 <0>        -0.0256
     22 C16        -6.7437   -2.0647   -0.9337 C.3       1 <0>         0.0595
     23 C17        -5.9808   -3.3716   -0.6756 C.3       1 <0>        -0.0221
     24 F3         -7.3288   -1.9839   -2.2019 F         1 <0>        -0.1635
     25 C18         1.4065   -2.4027   -0.5903 C.ar      1 <0>        -0.0953
     26 C19         1.5641   -3.5876    0.1040 C.ar      1 <0>        -0.1064
     27 C20         2.7485   -3.8474    0.7678 C.ar      1 <0>        -0.1138
     28 C21         3.7754   -2.9225    0.7370 C.ar      1 <0>        -0.1068
     29 C22         3.6181   -1.7380    0.0419 C.ar      1 <0>        -0.1116
     30 C23         2.4353   -1.4801   -0.6255 C.ar      1 <0>        -0.1015
     31 H1          0.5353    2.0973   -0.4951 H         1 <0>         0.1009
     32 H2         -0.9158    1.8178   -1.4872 H         1 <0>         0.0930
     33 H3         -1.0703    2.0455    0.2713 H         1 <0>         0.0957
     34 H4          1.2083   -2.9447   -3.0074 H         1 <0>         0.1147
     35 H5         -0.5567   -3.2527   -3.0482 H         1 <0>         0.1087
     36 H6          0.3872   -3.1894   -5.3804 H         1 <0>         0.1512
     37 H7          0.0484   -0.7333   -8.8530 H         1 <0>         0.1552
     38 H8         -0.3197    1.2436   -7.4380 H         1 <0>         0.1564
     39 H9         -0.8969   -3.9170   -0.6931 H         1 <0>         0.0944
     40 H10        -1.1100   -2.5351    0.4085 H         1 <0>         0.1008
     41 H11        -2.4641   -1.3904   -1.3766 H         1 <0>         0.0861
     42 H12        -2.3395   -2.8663   -2.3638 H         1 <0>         0.0873
     43 H13        -3.4320   -4.1668   -0.5572 H         1 <0>         0.1347
     44 H14        -3.5566   -2.6909    0.4299 H         1 <0>         0.1343
     45 H15        -5.0628   -1.1501    0.1689 H         1 <0>         0.1701
     46 H16        -5.1848   -0.6345   -1.5677 H         1 <0>         0.1470
     47 H17        -7.4171   -1.7743   -0.1273 H         1 <0>         0.1598
     48 H18        -6.3553   -4.2149   -1.2558 H         1 <0>         0.1496
     49 H19        -5.8655   -3.6053    0.3828 H         1 <0>         0.1709
     50 H20         0.7618   -4.3102    0.1282 H         1 <0>         0.1228
     51 H21         2.8714   -4.7728    1.3109 H         1 <0>         0.1283
     52 H22         4.7005   -3.1252    1.2562 H         1 <0>         0.1283
     53 H23         4.4203   -1.0153    0.0180 H         1 <0>         0.1267
     54 H24         2.3138   -0.5564   -1.1716 H         1 <0>         0.1141
     55 H25        -4.7372   -2.8379   -2.2710 H         1 <0>         0.4397
@<TRIPOS>BOND
     1    1    2 1
     2    1   31 1
     3    1   32 1
     4    1   33 1
     5    2    3 2
     6    2    4 am
     7    4    8 1
     8    4    5 1
     9    5    6 1
    10    5   17 1
    11    5   25 1
    12    6    7 1
    13    6   34 1
    14    6   35 1
    15    7    8 2
    16    7    9 1
    17    9   14 ar
    18    9   10 ar
    19   10   11 ar
    20   10   36 1
    21   11   12 ar
    22   11   16 1
    23   12   13 ar
    24   12   37 1
    25   13   14 ar
    26   13   38 1
    27   14   15 1
    28   17   18 1
    29   17   39 1
    30   17   40 1
    31   18   19 1
    32   18   41 1
    33   18   42 1
    34   19   20 1
    35   19   43 1
    36   19   44 1
    37   20   23 1
    38   20   21 1
    39   20   55 1
    40   21   22 1
    41   21   45 1
    42   21   46 1
    43   22   23 1
    44   22   24 1
    45   22   47 1
    46   23   48 1
    47   23   49 1
    48   25   30 ar
    49   25   26 ar
    50   26   27 ar
    51   26   50 1
    52   27   28 ar
    53   27   51 1
    54   28   29 ar
    55   28   52 1
    56   29   30 ar
    57   29   53 1
    58   30   54 1
@<TRIPOS>MOLECULE
CHEMBL246422
   58    61     0     0     0
SMALL
USER_CHARGES

@<TRIPOS>ATOM
      1 C1         -0.5515    1.6366   -0.3568 C.3       1 <0>        -0.1986
      2 C2         -0.3656    0.1484   -0.2095 C.2       1 <0>         0.4347
      3 O1         -0.3813   -0.3594    0.8939 O.2       1 <0>        -0.4533
      4 C3         -0.1739   -0.6534   -1.3507 C.2       1 <0>        -0.0784
      5 N1         -0.2152   -0.2462   -2.5840 N.2       1 <0>        -0.1242
      6 N2         -0.0138   -1.1325   -3.4815 N.pl3     1 <0>        -0.3921
      7 C4          0.2244   -2.4471   -2.8643 C.3       1 <0>         0.0639
      8 C5          0.1233   -2.1409   -1.3533 C.3       1 <0>         0.0101
      9 C6         -1.0227   -2.9279   -0.7143 C.3       1 <0>        -0.1017
     10 C7         -2.3361   -2.5766   -1.4161 C.3       1 <0>        -0.1519
     11 C8         -3.4733   -3.4047   -0.8144 C.3       1 <0>        -0.0036
     12 N3         -4.7343   -3.0675   -1.4883 N.4       1 <0>        -0.3948
     13 C9         -4.7099   -3.5511   -2.8924 C.3       1 <0>        -0.0074
     14 C10        -6.2118   -3.6433   -3.2617 C.3       1 <0>        -0.1450
     15 C11        -6.8599   -4.1458   -1.9511 C.3       1 <0>        -0.1448
     16 C12        -5.8628   -3.7695   -0.8395 C.3       1 <0>        -0.0086
     17 C13         1.4270   -2.4302   -0.6549 C.ar      1 <0>        -0.0761
     18 C14         1.4674   -3.3419    0.3833 C.ar      1 <0>        -0.1044
     19 C15         2.6633   -3.6074    1.0239 C.ar      1 <0>        -0.1137
     20 C16         3.8188   -2.9614    0.6259 C.ar      1 <0>        -0.1100
     21 C17         3.7785   -2.0504   -0.4130 C.ar      1 <0>        -0.1124
     22 C18         2.5835   -1.7881   -1.0564 C.ar      1 <0>        -0.1109
     23 C19        -0.0192   -0.8883   -4.8563 C.ar      1 <0>         0.1557
     24 C20         1.0756   -1.2486   -5.6318 C.ar      1 <0>        -0.1323
     25 C21         1.0667   -1.0051   -6.9931 C.ar      1 <0>         0.1192
     26 C22        -0.0322   -0.4027   -7.5835 C.ar      1 <0>        -0.1163
     27 C23        -1.1235   -0.0429   -6.8146 C.ar      1 <0>        -0.1058
     28 C24        -1.1238   -0.2885   -5.4537 C.ar      1 <0>         0.0937
     29 F1         -2.1931    0.0580   -4.7042 F         1 <0>        -0.1269
     30 F2          2.1312   -1.3547   -7.7481 F         1 <0>        -0.1208
     31 H1          0.4197    2.1299   -0.3161 H         1 <0>         0.0991
     32 H2         -1.0277    1.8504   -1.3137 H         1 <0>         0.0880
     33 H3         -1.1809    2.0061    0.4528 H         1 <0>         0.0888
     34 H4         -0.5410   -3.1608   -3.1689 H         1 <0>         0.0954
     35 H5          1.2191   -2.8162   -3.1141 H         1 <0>         0.0997
     36 H6         -0.8309   -3.9960   -0.8159 H         1 <0>         0.0860
     37 H7         -1.0954   -2.6706    0.3424 H         1 <0>         0.1014
     38 H8         -2.5481   -1.5160   -1.2808 H         1 <0>         0.0883
     39 H9         -2.2498   -2.7970   -2.4801 H         1 <0>         0.0827
     40 H10        -3.2613   -4.4653   -0.9498 H         1 <0>         0.1307
     41 H11        -3.5596   -3.1843    0.2496 H         1 <0>         0.1333
     42 H12        -4.1985   -2.8361   -3.5368 H         1 <0>         0.1316
     43 H13        -4.2379   -4.5317   -2.9534 H         1 <0>         0.1331
     44 H14        -6.6029   -2.6631   -3.5342 H         1 <0>         0.0980
     45 H15        -6.3675   -4.3597   -4.0683 H         1 <0>         0.1163
     46 H16        -7.8155   -3.6480   -1.7866 H         1 <0>         0.1054
     47 H17        -6.9966   -5.2266   -1.9868 H         1 <0>         0.1038
     48 H18        -5.5033   -4.6706   -0.3426 H         1 <0>         0.1310
     49 H19        -6.3439   -3.1106   -0.1167 H         1 <0>         0.1325
     50 H20         0.5647   -3.8466    0.6943 H         1 <0>         0.1238
     51 H21         2.6948   -4.3191    1.8355 H         1 <0>         0.1267
     52 H22         4.7530   -3.1682    1.1268 H         1 <0>         0.1269
     53 H23         4.6812   -1.5454   -0.7238 H         1 <0>         0.1258
     54 H24         2.5527   -1.0791   -1.8705 H         1 <0>         0.1128
     55 H25         1.9328   -1.7179   -5.1720 H         1 <0>         0.1524
     56 H26        -0.0363   -0.2134   -8.6467 H         1 <0>         0.1581
     57 H27        -1.9785    0.4266   -7.2781 H         1 <0>         0.1584
     58 H28        -4.8856   -2.0701   -1.4654 H         1 <0>         0.4269
@<TRIPOS>BOND
     1    1    2 1
     2    1   31 1
     3    1   32 1
     4    1   33 1
     5    2    3 2
     6    2    4 1
     7    4    8 1
     8    4    5 2
     9    5    6 1
    10    6    7 1
    11    6   23 1
    12    7    8 1
    13    7   34 1
    14    7   35 1
    15    8    9 1
    16    8   17 1
    17    9   10 1
    18    9   36 1
    19    9   37 1
    20   10   11 1
    21   10   38 1
    22   10   39 1
    23   11   12 1
    24   11   40 1
    25   11   41 1
    26   12   16 1
    27   12   13 1
    28   12   58 1
    29   13   14 1
    30   13   42 1
    31   13   43 1
    32   14   15 1
    33   14   44 1
    34   14   45 1
    35   15   16 1
    36   15   46 1
    37   15   47 1
    38   16   48 1
    39   16   49 1
    40   17   22 ar
    41   17   18 ar
    42   18   19 ar
    43   18   50 1
    44   19   20 ar
    45   19   51 1
    46   20   21 ar
    47   20   52 1
    48   21   22 ar
    49   21   53 1
    50   22   54 1
    51   23   28 ar
    52   23   24 ar
    53   24   25 ar
    54   24   55 1
    55   25   26 ar
    56   25   30 1
    57   26   27 ar
    58   26   56 1
    59   27   28 ar
    60   27   57 1
    61   28   29 1
@<TRIPOS>MOLECULE
CHEMBL246422__1
   58    61     0     0     0
SMALL
USER_CHARGES

@<TRIPOS>ATOM
      1 C1         -0.2509    1.6064   -0.3672 C.3       1 <0>        -0.1975
      2 C2         -0.1790    0.1076   -0.2278 C.2       1 <0>         0.4321
      3 O1         -0.2042   -0.4018    0.8747 O.2       1 <0>        -0.4493
      4 C3         -0.0826   -0.7022   -1.3754 C.2       1 <0>        -0.0796
      5 N1         -0.1515   -0.2913   -2.6061 N.2       1 <0>        -0.1249
      6 N2         -0.0402   -1.1865   -3.5106 N.pl3     1 <0>        -0.3909
      7 C4          0.1461   -2.5138   -2.9027 C.3       1 <0>         0.0638
      8 C5          0.1264   -2.2046   -1.3891 C.3       1 <0>         0.0098
      9 C6          1.4590   -2.5767   -0.7359 C.3       1 <0>        -0.1019
     10 C7          2.5930   -1.8079   -1.4171 C.3       1 <0>        -0.1532
     11 C8          3.9080   -2.0845   -0.6855 C.3       1 <0>        -0.0041
     12 N3          4.9968   -1.3464   -1.3395 N.4       1 <0>        -0.3948
     13 C9          4.8262    0.1136   -1.1262 C.3       1 <0>        -0.0082
     14 C10         6.2542    0.6733   -1.3462 C.3       1 <0>        -0.1450
     15 C11         7.1533   -0.4178   -0.7208 C.3       1 <0>        -0.1452
     16 C12         6.2937   -1.6955   -0.7200 C.3       1 <0>        -0.0084
     17 C13        -1.0186   -2.9132   -0.7124 C.ar      1 <0>        -0.0748
     18 C14        -0.7776   -3.7394    0.3694 C.ar      1 <0>        -0.1029
     19 C15        -1.8279   -4.3894    0.9902 C.ar      1 <0>        -0.1144
     20 C16        -3.1192   -4.2128    0.5294 C.ar      1 <0>        -0.1101
     21 C17        -3.3602   -3.3859   -0.5518 C.ar      1 <0>        -0.1125
     22 C18        -2.3105   -2.7326   -1.1698 C.ar      1 <0>        -0.1096
     23 C19        -0.0889   -0.9402   -4.8841 C.ar      1 <0>         0.1531
     24 C20         0.9495   -1.3628   -5.7045 C.ar      1 <0>        -0.1352
     25 C21         0.8979   -1.1170   -7.0645 C.ar      1 <0>         0.1121
     26 C22        -0.1875   -0.4503   -7.6088 C.ar      1 <0>        -0.1142
     27 C23        -1.2226   -0.0283   -6.7952 C.ar      1 <0>        -0.1040
     28 C24        -1.1804   -0.2757   -5.4353 C.ar      1 <0>         0.1023
     29 F1         -2.1951    0.1318   -4.6419 F         1 <0>        -0.1179
     30 F2          1.9075   -1.5273   -7.8630 F         1 <0>        -0.1245
     31 H1          0.7569    2.0214   -0.3525 H         1 <0>         0.0924
     32 H2         -0.7349    1.8608   -1.3101 H         1 <0>         0.0901
     33 H3         -0.8267    2.0210    0.4603 H         1 <0>         0.0909
     34 H4         -0.6720   -3.1809   -3.1744 H         1 <0>         0.1011
     35 H5          1.1061   -2.9403   -3.1937 H         1 <0>         0.0947
     36 H6          1.4295   -2.3183    0.3226 H         1 <0>         0.0984
     37 H7          1.6301   -3.6477   -0.8439 H         1 <0>         0.0884
     38 H8          2.6794   -2.1313   -2.4544 H         1 <0>         0.0833
     39 H9          2.3777   -0.7398   -1.3862 H         1 <0>         0.0885
     40 H10         3.8217   -1.7610    0.3519 H         1 <0>         0.1326
     41 H11         4.1233   -3.1525   -0.7163 H         1 <0>         0.1321
     42 H12         4.1328    0.5307   -1.8565 H         1 <0>         0.1327
     43 H13         4.4856    0.3169   -0.1109 H         1 <0>         0.1347
     44 H14         6.4653    0.7842   -2.4098 H         1 <0>         0.0975
     45 H15         6.3808    1.6225   -0.8257 H         1 <0>         0.1171
     46 H16         8.0477   -0.5639   -1.3264 H         1 <0>         0.1052
     47 H17         7.4261   -0.1448    0.2986 H         1 <0>         0.1043
     48 H18         6.1366   -2.0367    0.3032 H         1 <0>         0.1313
     49 H19         6.7857   -2.4744   -1.3025 H         1 <0>         0.1319
     50 H20         0.2313   -3.8773    0.7294 H         1 <0>         0.1228
     51 H21        -1.6395   -5.0354    1.8349 H         1 <0>         0.1262
     52 H22        -3.9396   -4.7212    1.0139 H         1 <0>         0.1265
     53 H23        -4.3691   -3.2482   -0.9120 H         1 <0>         0.1253
     54 H24        -2.4992   -2.0836   -2.0122 H         1 <0>         0.1127
     55 H25         1.7962   -1.8824   -5.2807 H         1 <0>         0.1455
     56 H26        -0.2250   -0.2594   -8.6711 H         1 <0>         0.1580
     57 H27        -2.0673    0.4913   -7.2229 H         1 <0>         0.1606
     58 H28         5.0153   -1.5549   -2.3265 H         1 <0>         0.4249
@<TRIPOS>BOND
     1    1    2 1
     2    1   31 1
     3    1   32 1
     4    1   33 1
     5    2    3 2
     6    2    4 1
     7    4    8 1
     8    4    5 2
     9    5    6 1
    10    6    7 1
    11    6   23 1
    12    7    8 1
    13    7   34 1
    14    7   35 1
    15    8    9 1
    16    8   17 1
    17    9   10 1
    18    9   36 1
    19    9   37 1
    20   10   11 1
    21   10   38 1
    22   10   39 1
    23   11   12 1
    24   11   40 1
    25   11   41 1
    26   12   16 1
    27   12   13 1
    28   12   58 1
    29   13   14 1
    30   13   42 1
    31   13   43 1
    32   14   15 1
    33   14   44 1
    34   14   45 1
    35   15   16 1
    36   15   46 1
    37   15   47 1
    38   16   48 1
    39   16   49 1
    40   17   22 ar
    41   17   18 ar
    42   18   19 ar
    43   18   50 1
    44   19   20 ar
    45   19   51 1
    46   20   21 ar
    47   20   52 1
    48   21   22 ar
    49   21   53 1
    50   22   54 1
    51   23   28 ar
    52   23   24 ar
    53   24   25 ar
    54   24   55 1
    55   25   26 ar
    56   25   30 1
    57   26   27 ar
    58   26   56 1
    59   27   28 ar
    60   27   57 1
    61   28   29 1
@<TRIPOS>MOLECULE
CHEMBL240497
   59    63     0     0     0
SMALL
USER_CHARGES

@<TRIPOS>ATOM
      1 C1         -0.6940    1.5772    0.3754 C.3       1 <0>        -0.1631
      2 C2         -0.4229    0.0992    0.2602 C.2       1 <0>         0.5519
      3 O1          0.7176   -0.3127    0.2944 O.2       1 <0>        -0.5098
      4 N1         -1.4475   -0.7649    0.1192 N.am      1 <0>        -0.4579
      5 C3         -1.3207   -2.2143   -0.1011 C.3       1 <0>         0.1847
      6 C4         -2.7825   -2.6960   -0.1876 C.3       1 <0>        -0.1211
      7 C5         -3.5936   -1.4336   -0.0020 C.2       1 <0>         0.1275
      8 N2         -2.8000   -0.4326    0.1641 N.2       1 <0>        -0.2083
      9 C6         -5.0662   -1.3604   -0.0043 C.ar      1 <0>        -0.0359
     10 C7         -5.8261   -2.5189   -0.1825 C.ar      1 <0>        -0.0988
     11 C8         -7.2051   -2.4429   -0.1831 C.ar      1 <0>         0.0922
     12 C9         -7.8354   -1.2208   -0.0074 C.ar      1 <0>        -0.1071
     13 C10        -7.0897   -0.0699    0.1696 C.ar      1 <0>        -0.1262
     14 C11        -5.7090   -0.1316    0.1777 C.ar      1 <0>         0.1269
     15 F1         -4.9820    0.9931    0.3559 F         1 <0>        -0.1129
     16 F2         -7.9416   -3.5622   -0.3558 F         1 <0>        -0.1293
     17 C12        -0.6042   -2.8773    1.0770 C.3       1 <0>        -0.1216
     18 C13        -1.3214   -2.5155    2.3792 C.3       1 <0>        -0.1083
     19 C14        -0.5290   -3.0645    3.5673 C.3       1 <0>         0.0442
     20 N3         -1.2176   -2.7171    4.8176 N.3       1 <0>        -0.5128
     21 C15        -0.9426   -1.3114    5.2031 C.3       1 <0>         0.0100
     22 C16        -0.3278   -1.3983    6.6342 C.3       1 <0>         0.0489
     23 H1         -0.3840   -0.4917    7.2367 H         1 <0>         0.1388
     24 C17        -1.1045   -2.6489    7.1817 C.3       1 <0>        -0.1531
     25 C18        -0.7186   -3.5537    5.9556 C.3       1 <0>         0.0308
     26 H2         -1.0589   -4.5888    5.9821 H         1 <0>         0.1353
     27 C19         0.8231   -3.3086    5.9482 C.3       1 <0>         0.0063
     28 O2          1.0057   -1.9393    6.4175 O.3       1 <0>        -0.3767
     29 C20        -0.5932   -2.4931   -1.3911 C.ar      1 <0>        -0.0839
     30 C21         0.1528   -3.6488   -1.5280 C.ar      1 <0>        -0.1039
     31 C22         0.8201   -3.9045   -2.7113 C.ar      1 <0>        -0.1161
     32 C23         0.7411   -3.0048   -3.7578 C.ar      1 <0>        -0.1143
     33 C24        -0.0057   -1.8496   -3.6212 C.ar      1 <0>        -0.1157
     34 C25        -0.6766   -1.5959   -2.4394 C.ar      1 <0>        -0.1033
     35 H3          0.2495    2.1124    0.4820 H         1 <0>         0.0925
     36 H4         -1.2087    1.9231   -0.5209 H         1 <0>         0.0921
     37 H5         -1.3189    1.7649    1.2486 H         1 <0>         0.0939
     38 H6         -2.9821   -3.1387   -1.1635 H         1 <0>         0.1076
     39 H7         -2.9978   -3.4093    0.6081 H         1 <0>         0.1129
     40 H8         -5.3364   -3.4716   -0.3199 H         1 <0>         0.1517
     41 H9         -8.9140   -1.1673   -0.0091 H         1 <0>         0.1513
     42 H10        -7.5874    0.8789    0.3056 H         1 <0>         0.1533
     43 H11        -0.6134   -3.9593    0.9456 H         1 <0>         0.0818
     44 H12         0.4265   -2.5253    1.1200 H         1 <0>         0.0878
     45 H13        -1.3976   -1.4314    2.4629 H         1 <0>         0.0619
     46 H14        -2.3207   -2.9509    2.3766 H         1 <0>         0.0704
     47 H15        -0.4528   -4.1486    3.4836 H         1 <0>         0.0748
     48 H16         0.4703   -2.6291    3.5699 H         1 <0>         0.0461
     49 H17        -0.2304   -0.8613    4.5115 H         1 <0>         0.0667
     50 H18        -1.8682   -0.7360    5.2227 H         1 <0>         0.0866
     51 H19        -0.6894   -3.0191    8.1191 H         1 <0>         0.0890
     52 H20        -2.1784   -2.4752    7.2491 H         1 <0>         0.0961
     53 H21         1.3199   -4.0099    6.6186 H         1 <0>         0.0767
     54 H22         1.2164   -3.4093    4.9366 H         1 <0>         0.0778
     55 H23         0.2146   -4.3517   -0.7104 H         1 <0>         0.1257
     56 H24         1.4036   -4.8071   -2.8180 H         1 <0>         0.1254
     57 H25         1.2630   -3.2043   -4.6820 H         1 <0>         0.1239
     58 H26        -0.0673   -1.1465   -4.4387 H         1 <0>         0.1229
     59 H27        -1.2630   -0.6952   -2.3340 H         1 <0>         0.1138
@<TRIPOS>BOND
     1    1    2 1
     2    1   35 1
     3    1   36 1
     4    1   37 1
     5    2    3 2
     6    2    4 am
     7    4    8 1
     8    4    5 1
     9    5    6 1
    10    5   17 1
    11    5   29 1
    12    6    7 1
    13    6   38 1
    14    6   39 1
    15    7    8 2
    16    7    9 1
    17    9   14 ar
    18    9   10 ar
    19   10   11 ar
    20   10   40 1
    21   11   12 ar
    22   11   16 1
    23   12   13 ar
    24   12   41 1
    25   13   14 ar
    26   13   42 1
    27   14   15 1
    28   17   18 1
    29   17   43 1
    30   17   44 1
    31   18   19 1
    32   18   45 1
    33   18   46 1
    34   19   20 1
    35   19   47 1
    36   19   48 1
    37   20   25 1
    38   20   21 1
    39   21   22 1
    40   21   49 1
    41   21   50 1
    42   22   23 1
    43   22   28 1
    44   22   24 1
    45   24   25 1
    46   24   51 1
    47   24   52 1
    48   25   26 1
    49   25   27 1
    50   27   28 1
    51   27   53 1
    52   27   54 1
    53   29   34 ar
    54   29   30 ar
    55   30   31 ar
    56   30   55 1
    57   31   32 ar
    58   31   56 1
    59   32   33 ar
    60   32   57 1
    61   33   34 ar
    62   33   58 1
    63   34   59 1
@<TRIPOS>MOLECULE
CHEMBL240497__1
   60    64     0     0     0
SMALL
USER_CHARGES

@<TRIPOS>ATOM
      1 C1         -0.4079    1.6524   -0.4140 C.3       1 <0>        -0.1698
      2 C2         -0.2704    0.1618   -0.2404 C.2       1 <0>         0.5514
      3 O1         -0.2908   -0.3239    0.8711 O.2       1 <0>        -0.5082
      4 N1         -0.1247   -0.6318   -1.3200 N.am      1 <0>        -0.4635
      5 C3          0.1119   -2.0839   -1.2893 C.3       1 <0>         0.1873
      6 C4          0.1968   -2.4679   -2.7798 C.3       1 <0>        -0.1246
      7 C5         -0.0062   -1.1572   -3.5058 C.2       1 <0>         0.1322
      8 N2         -0.1795   -0.2122   -2.6476 N.2       1 <0>        -0.2116
      9 C6         -0.0115   -0.9878   -4.9704 C.ar      1 <0>        -0.0477
     10 C7          0.1757   -2.0919   -5.8052 C.ar      1 <0>        -0.1008
     11 C8          0.1691   -1.9258   -7.1763 C.ar      1 <0>         0.0950
     12 C9         -0.0228   -0.6672   -7.7244 C.ar      1 <0>        -0.1011
     13 C10        -0.2088    0.4304   -6.9043 C.ar      1 <0>        -0.1240
     14 C11        -0.2099    0.2784   -5.5306 C.ar      1 <0>         0.1277
     15 F1         -0.3969    1.3510   -4.7308 F         1 <0>        -0.1128
     16 F2          0.3505   -2.9926   -7.9852 F         1 <0>        -0.1260
     17 C12        -1.0556   -2.8054   -0.6131 C.3       1 <0>        -0.1192
     18 C13        -2.3608   -2.4406   -1.3233 C.3       1 <0>        -0.1487
     19 C14        -3.5385   -3.0824   -0.5872 C.3       1 <0>        -0.0132
     20 N3         -4.7917   -2.7321   -1.2690 N.4       1 <0>        -0.3965
     21 C15        -5.1210   -1.3050   -1.0341 C.3       1 <0>        -0.0438
     22 C16        -6.5254   -1.3213   -0.3552 C.3       1 <0>         0.0719
     23 H1         -7.1014   -0.3983   -0.4216 H         1 <0>         0.1781
     24 C17        -7.1452   -2.5824   -1.0569 C.3       1 <0>        -0.1718
     25 C18        -5.9318   -3.5111   -0.6883 C.3       1 <0>        -0.0030
     26 H2         -6.0054   -4.5573   -0.9855 H         1 <0>         0.1883
     27 C19        -5.8484   -3.2071    0.8406 C.3       1 <0>         0.0163
     28 O2         -6.2666   -1.8172    0.9883 O.3       1 <0>        -0.3509
     29 C20         1.4082   -2.3953   -0.5867 C.ar      1 <0>        -0.0951
     30 C21         1.5611   -3.5957    0.0815 C.ar      1 <0>        -0.1065
     31 C22         2.7502   -3.8814    0.7260 C.ar      1 <0>        -0.1137
     32 C23         3.7865   -2.9668    0.7020 C.ar      1 <0>        -0.1068
     33 C24         3.6338   -1.7668    0.0330 C.ar      1 <0>        -0.1116
     34 C25         2.4463   -1.4829   -0.6151 C.ar      1 <0>        -0.1013
     35 H3          0.5797    2.1133   -0.3927 H         1 <0>         0.1009
     36 H4         -0.8871    1.8642   -1.3697 H         1 <0>         0.0929
     37 H5         -1.0155    2.0579    0.3950 H         1 <0>         0.0961
     38 H6          1.1765   -2.8856   -3.0118 H         1 <0>         0.1145
     39 H7         -0.5920   -3.1743   -3.0383 H         1 <0>         0.1086
     40 H8          0.3257   -3.0731   -5.3796 H         1 <0>         0.1511
     41 H9         -0.0267   -0.5432   -8.7973 H         1 <0>         0.1550
     42 H10        -0.3574    1.4082   -7.3382 H         1 <0>         0.1563
     43 H11        -0.8994   -3.8826   -0.6708 H         1 <0>         0.0947
     44 H12        -1.1137   -2.5022    0.4322 H         1 <0>         0.1010
     45 H13        -2.4817   -1.3573   -1.3273 H         1 <0>         0.0865
     46 H14        -2.3307   -2.8067   -2.3495 H         1 <0>         0.0883
     47 H15        -3.4177   -4.1657   -0.5831 H         1 <0>         0.1351
     48 H16        -3.5687   -2.7163    0.4391 H         1 <0>         0.1367
     49 H17        -4.3849   -0.8505   -0.3710 H         1 <0>         0.1420
     50 H18        -5.1638   -0.7654   -1.9803 H         1 <0>         0.1422
     51 H19        -8.0743   -2.9055   -0.5873 H         1 <0>         0.1349
     52 H20        -7.2548   -2.4482   -2.1330 H         1 <0>         0.1171
     53 H21        -6.5175   -3.8664    1.3935 H         1 <0>         0.1209
     54 H22        -4.8240   -3.3255    1.1936 H         1 <0>         0.1034
     55 H23         0.7515   -4.3102    0.1003 H         1 <0>         0.1228
     56 H24         2.8694   -4.8189    1.2487 H         1 <0>         0.1282
     57 H25         4.7152   -3.1897    1.2061 H         1 <0>         0.1282
     58 H26         4.4433   -1.0521    0.0145 H         1 <0>         0.1266
     59 H27         2.3284   -0.5470   -1.1409 H         1 <0>         0.1142
     60 H28        -4.7132   -2.9144   -2.2583 H         1 <0>         0.4259
@<TRIPOS>BOND
     1    1    2 1
     2    1   35 1
     3    1   36 1
     4    1   37 1
     5    2    3 2
     6    2    4 am
     7    4    8 1
     8    4    5 1
     9    5    6 1
    10    5   17 1
    11    5   29 1
    12    6    7 1
    13    6   38 1
    14    6   39 1
    15    7    8 2
    16    7    9 1
    17    9   14 ar
    18    9   10 ar
    19   10   11 ar
    20   10   40 1
    21   11   12 ar
    22   11   16 1
    23   12   13 ar
    24   12   41 1
    25   13   14 ar
    26   13   42 1
    27   14   15 1
    28   17   18 1
    29   17   43 1
    30   17   44 1
    31   18   19 1
    32   18   45 1
    33   18   46 1
    34   19   20 1
    35   19   47 1
    36   19   48 1
    37   20   25 1
    38   20   21 1
    39   20   60 1
    40   21   22 1
    41   21   49 1
    42   21   50 1
    43   22   23 1
    44   22   28 1
    45   22   24 1
    46   24   25 1
    47   24   51 1
    48   24   52 1
    49   25   26 1
    50   25   27 1
    51   27   28 1
    52   27   53 1
    53   27   54 1
    54   29   34 ar
    55   29   30 ar
    56   30   31 ar
    57   30   55 1
    58   31   32 ar
    59   31   56 1
    60   32   33 ar
    61   32   57 1
    62   33   34 ar
    63   33   58 1
    64   34   59 1
@<TRIPOS>MOLECULE
CHEMBL239415
   58    61     0     0     0
SMALL
USER_CHARGES

@<TRIPOS>ATOM
      1 C1         -0.4484    1.6286   -0.5209 C.3       1 <0>        -0.1673
      2 C2         -0.3026    0.1428   -0.3156 C.2       1 <0>         0.5520
      3 O1         -0.3350   -0.3208    0.8049 O.2       1 <0>        -0.5107
      4 N1         -0.1360   -0.6709   -1.3770 N.am      1 <0>        -0.4576
      5 C3          0.1153   -2.1195   -1.3140 C.3       1 <0>         0.1843
      6 C4          0.2217   -2.5328   -2.7953 C.3       1 <0>        -0.1215
      7 C5          0.0134   -1.2394   -3.5501 C.2       1 <0>         0.1285
      8 N2         -0.1796   -0.2791   -2.7135 N.2       1 <0>        -0.2098
      9 C6          0.0235   -1.0999   -5.0179 C.ar      1 <0>        -0.0366
     10 C7          0.2320   -2.2187   -5.8277 C.ar      1 <0>        -0.0986
     11 C8          0.2397   -2.0806   -7.2019 C.ar      1 <0>         0.0924
     12 C9          0.0411   -0.8355   -7.7778 C.ar      1 <0>        -0.1068
     13 C10        -0.1660    0.2765   -6.9825 C.ar      1 <0>        -0.1261
     14 C11        -0.1815    0.1525   -5.6061 C.ar      1 <0>         0.1269
     15 F1         -0.3890    1.2391   -4.8306 F         1 <0>        -0.1130
     16 F2          0.4416   -3.1616   -7.9867 F         1 <0>        -0.1292
     17 C12        -1.0524   -2.8396   -0.6366 C.3       1 <0>        -0.1210
     18 C13        -2.3576   -2.4747   -1.3467 C.3       1 <0>        -0.1140
     19 C14        -3.5385   -3.0824   -0.5872 C.3       1 <0>         0.0577
     20 N3         -4.7917   -2.7321   -1.2690 N.3       1 <0>        -0.5359
     21 C15        -5.0446   -1.2857   -1.1962 C.3       1 <0>         0.0160
     22 C16        -6.3253   -0.9576   -1.9682 C.3       1 <0>         0.0641
     23 O2         -7.4079   -1.7240   -1.4335 O.3       1 <0>        -0.3849
     24 C17        -7.1953   -3.1372   -1.4890 C.3       1 <0>         0.0634
     25 C18        -5.9234   -3.4875   -0.7122 C.3       1 <0>         0.0169
     26 C19         1.4065   -2.4027   -0.5903 C.ar      1 <0>        -0.0841
     27 C20         1.5641   -3.5876    0.1040 C.ar      1 <0>        -0.1039
     28 C21         2.7485   -3.8474    0.7678 C.ar      1 <0>        -0.1160
     29 C22         3.7754   -2.9225    0.7370 C.ar      1 <0>        -0.1141
     30 C23         3.6181   -1.7380    0.0419 C.ar      1 <0>        -0.1158
     31 C24         2.4353   -1.4801   -0.6255 C.ar      1 <0>        -0.1035
     32 H1          0.5353    2.0973   -0.4951 H         1 <0>         0.0962
     33 H2         -0.9158    1.8178   -1.4872 H         1 <0>         0.0929
     34 H3         -1.0703    2.0455    0.2713 H         1 <0>         0.0937
     35 H4          1.2083   -2.9447   -3.0074 H         1 <0>         0.1080
     36 H5         -0.5567   -3.2527   -3.0482 H         1 <0>         0.1132
     37 H6          0.3872   -3.1894   -5.3804 H         1 <0>         0.1518
     38 H7          0.0484   -0.7333   -8.8530 H         1 <0>         0.1515
     39 H8         -0.3197    1.2436   -7.4380 H         1 <0>         0.1535
     40 H9         -0.8969   -3.9170   -0.6931 H         1 <0>         0.0827
     41 H10        -1.1100   -2.5351    0.4085 H         1 <0>         0.0883
     42 H11        -2.4641   -1.3904   -1.3766 H         1 <0>         0.0633
     43 H12        -2.3395   -2.8663   -2.3638 H         1 <0>         0.0717
     44 H13        -3.4320   -4.1668   -0.5572 H         1 <0>         0.0774
     45 H14        -3.5566   -2.6909    0.4299 H         1 <0>         0.0365
     46 H15        -5.1615   -0.9887   -0.1540 H         1 <0>         0.0426
     47 H16        -4.2058   -0.7470   -1.6370 H         1 <0>         0.0854
     48 H17        -6.5478    0.1049   -1.8692 H         1 <0>         0.0982
     49 H18        -6.1892   -1.2050   -3.0210 H         1 <0>         0.0598
     50 H19        -8.0470   -3.6512   -1.0435 H         1 <0>         0.0990
     51 H20        -7.0845   -3.4481   -2.5279 H         1 <0>         0.0603
     52 H21        -5.7261   -4.5559   -0.7996 H         1 <0>         0.0869
     53 H22        -6.0544   -3.2256    0.3377 H         1 <0>         0.0432
     54 H23         0.7618   -4.3102    0.1282 H         1 <0>         0.1258
     55 H24         2.8714   -4.7728    1.3109 H         1 <0>         0.1256
     56 H25         4.7005   -3.1252    1.2562 H         1 <0>         0.1240
     57 H26         4.4203   -1.0153    0.0180 H         1 <0>         0.1229
     58 H27         2.3138   -0.5564   -1.1716 H         1 <0>         0.1138
@<TRIPOS>BOND
     1    1    2 1
     2    1   32 1
     3    1   33 1
     4    1   34 1
     5    2    3 2
     6    2    4 am
     7    4    8 1
     8    4    5 1
     9    5    6 1
    10    5   17 1
    11    5   26 1
    12    6    7 1
    13    6   35 1
    14    6   36 1
    15    7    8 2
    16    7    9 1
    17    9   14 ar
    18    9   10 ar
    19   10   11 ar
    20   10   37 1
    21   11   12 ar
    22   11   16 1
    23   12   13 ar
    24   12   38 1
    25   13   14 ar
    26   13   39 1
    27   14   15 1
    28   17   18 1
    29   17   40 1
    30   17   41 1
    31   18   19 1
    32   18   42 1
    33   18   43 1
    34   19   20 1
    35   19   44 1
    36   19   45 1
    37   20   25 1
    38   20   21 1
    39   21   22 1
    40   21   46 1
    41   21   47 1
    42   22   23 1
    43   22   48 1
    44   22   49 1
    45   23   24 1
    46   24   25 1
    47   24   50 1
    48   24   51 1
    49   25   52 1
    50   25   53 1
    51   26   31 ar
    52   26   27 ar
    53   27   28 ar
    54   27   54 1
    55   28   29 ar
    56   28   55 1
    57   29   30 ar
    58   29   56 1
    59   30   31 ar
    60   30   57 1
    61   31   58 1
@<TRIPOS>MOLECULE
CHEMBL239415__1
   59    62     0     0     0
SMALL
USER_CHARGES

@<TRIPOS>ATOM
      1 C1         -0.5519    1.6219    0.4389 C.3       1 <0>        -0.1656
      2 C2         -0.3184    0.1391    0.3054 C.2       1 <0>         0.5508
      3 O1          0.8108   -0.3028    0.3419 O.2       1 <0>        -0.5077
      4 N1         -1.3641   -0.6960    0.1454 N.am      1 <0>        -0.4648
      5 C3         -1.2733   -2.1451   -0.0942 C.3       1 <0>         0.1872
      6 C4         -2.7465   -2.5874   -0.1973 C.3       1 <0>        -0.1249
      7 C5         -3.5259   -1.3069    0.0005 C.2       1 <0>         0.1336
      8 N2         -2.7077   -0.3293    0.1858 N.2       1 <0>        -0.2125
      9 C6         -4.9960   -1.1955   -0.0107 C.ar      1 <0>        -0.0486
     10 C7         -5.7844   -2.3312   -0.2101 C.ar      1 <0>        -0.1005
     11 C8         -7.1610   -2.2193   -0.2189 C.ar      1 <0>         0.0951
     12 C9         -7.7605   -0.9838   -0.0304 C.ar      1 <0>        -0.1007
     13 C10        -6.9865    0.1447    0.1676 C.ar      1 <0>        -0.1240
     14 C11        -5.6080    0.0471    0.1842 C.ar      1 <0>         0.1278
     15 F1         -4.8534    1.1499    0.3829 F         1 <0>        -0.1128
     16 F2         -7.9250   -3.3167   -0.4121 F         1 <0>        -0.1258
     17 C12        -0.5825   -2.8427    1.0793 C.3       1 <0>        -0.1184
     18 C13        -1.2998   -2.4809    2.3815 C.3       1 <0>        -0.1527
     19 C14        -0.5290   -3.0645    3.5673 C.3       1 <0>        -0.0070
     20 N3         -1.2176   -2.7171    4.8176 N.4       1 <0>        -0.3849
     21 C15        -1.1799   -1.2608    5.0095 C.3       1 <0>        -0.0483
     22 C16        -1.8982   -0.9015    6.3126 C.3       1 <0>         0.0379
     23 O2         -1.2752   -1.5909    7.4000 O.3       1 <0>        -0.3554
     24 C17        -1.2657   -3.0131    7.2476 C.3       1 <0>         0.0360
     25 C18        -0.5462   -3.3763    5.9462 C.3       1 <0>        -0.0437
     26 C19        -0.5442   -2.4249   -1.3830 C.ar      1 <0>        -0.0956
     27 C20         0.1726   -3.5976   -1.5311 C.ar      1 <0>        -0.1064
     28 C21         0.8414   -3.8542   -2.7133 C.ar      1 <0>        -0.1137
     29 C22         0.7931   -2.9384   -3.7477 C.ar      1 <0>        -0.1066
     30 C23         0.0756   -1.7662   -3.6000 C.ar      1 <0>        -0.1115
     31 C24        -0.5968   -1.5115   -2.4193 C.ar      1 <0>        -0.1013
     32 H1          0.4044    2.1309    0.5593 H         1 <0>         0.0961
     33 H2         -1.0509    1.9932   -0.4563 H         1 <0>         0.0964
     34 H3         -1.1781    1.8142    1.3101 H         1 <0>         0.0930
     35 H4         -2.9505   -3.0112   -1.1805 H         1 <0>         0.1148
     36 H5         -2.9858   -3.3056    0.5869 H         1 <0>         0.1089
     37 H6         -5.3186   -3.2944   -0.3575 H         1 <0>         0.1512
     38 H7         -8.8374   -0.9023   -0.0386 H         1 <0>         0.1551
     39 H8         -7.4604    1.1042    0.3135 H         1 <0>         0.1563
     40 H9         -0.6185   -3.9221    0.9325 H         1 <0>         0.0950
     41 H10         0.4565   -2.5179    1.1344 H         1 <0>         0.1013
     42 H11        -1.3504   -1.3965    2.4792 H         1 <0>         0.0870
     43 H12        -2.3092   -2.8919    2.3666 H         1 <0>         0.0887
     44 H13        -0.4784   -4.1489    3.4696 H         1 <0>         0.1360
     45 H14         0.4805   -2.6535    3.5822 H         1 <0>         0.1332
     46 H15        -0.1434   -0.9277    5.0618 H         1 <0>         0.1398
     47 H16        -1.6778   -0.7708    4.1728 H         1 <0>         0.1397
     48 H17        -1.8341    0.1738    6.4789 H         1 <0>         0.1423
     49 H18        -2.9448   -1.1984    6.2451 H         1 <0>         0.0811
     50 H19        -0.7439   -3.4660    8.0906 H         1 <0>         0.1428
     51 H20        -2.2906   -3.3823    7.2121 H         1 <0>         0.0813
     52 H21        -0.5737   -4.4568    5.8049 H         1 <0>         0.1434
     53 H22         0.4901   -3.0424    5.9982 H         1 <0>         0.1395
     54 H23         0.2104   -4.3131   -0.7230 H         1 <0>         0.1228
     55 H24         1.4020   -4.7701   -2.8287 H         1 <0>         0.1283
     56 H25         1.3162   -3.1387   -4.6711 H         1 <0>         0.1283
     57 H26         0.0381   -1.0505   -4.4079 H         1 <0>         0.1267
     58 H27        -1.1605   -0.5973   -2.3052 H         1 <0>         0.1141
     59 H28        -2.1771   -3.0256    4.7701 H         1 <0>         0.4218
@<TRIPOS>BOND
     1    1    2 1
     2    1   32 1
     3    1   33 1
     4    1   34 1
     5    2    3 2
     6    2    4 am
     7    4    8 1
     8    4    5 1
     9    5    6 1
    10    5   17 1
    11    5   26 1
    12    6    7 1
    13    6   35 1
    14    6   36 1
    15    7    8 2
    16    7    9 1
    17    9   14 ar
    18    9   10 ar
    19   10   11 ar
    20   10   37 1
    21   11   12 ar
    22   11   16 1
    23   12   13 ar
    24   12   38 1
    25   13   14 ar
    26   13   39 1
    27   14   15 1
    28   17   18 1
    29   17   40 1
    30   17   41 1
    31   18   19 1
    32   18   42 1
    33   18   43 1
    34   19   20 1
    35   19   44 1
    36   19   45 1
    37   20   25 1
    38   20   21 1
    39   20   59 1
    40   21   22 1
    41   21   46 1
    42   21   47 1
    43   22   23 1
    44   22   48 1
    45   22   49 1
    46   23   24 1
    47   24   25 1
    48   24   50 1
    49   24   51 1
    50   25   52 1
    51   25   53 1
    52   26   31 ar
    53   26   27 ar
    54   27   28 ar
    55   27   54 1
    56   28   29 ar
    57   28   55 1
    58   29   30 ar
    59   29   56 1
    60   30   31 ar
    61   30   57 1
    62   31   58 1
@<TRIPOS>MOLECULE
CHEMBL246603
   59    63     0     0     0
SMALL
USER_CHARGES

@<TRIPOS>ATOM
      1 C1         -0.3882    1.6339    0.5398 C.3       1 <0>        -0.1936
      2 C2         -0.2126    0.1470    0.3685 C.2       1 <0>         0.4357
      3 O1          0.9002   -0.3397    0.3903 O.2       1 <0>        -0.4543
      4 C3         -1.3382   -0.6780    0.1832 C.2       1 <0>        -0.0688
      5 N1         -2.5791   -0.2941    0.2211 N.2       1 <0>        -0.1295
      6 N2         -3.4594   -1.1991    0.0268 N.pl3     1 <0>        -0.3926
      7 C4         -2.8171   -2.5035   -0.2006 C.3       1 <0>         0.0672
      8 C5         -1.3122   -2.1676   -0.1019 C.3       1 <0>         0.0065
      9 C6         -0.6586   -2.9329    1.0505 C.3       1 <0>        -0.1042
     10 C7         -1.3673   -2.5845    2.3610 C.3       1 <0>        -0.1120
     11 C8         -0.7503   -3.3919    3.5047 C.3       1 <0>         0.0467
     12 N3         -1.4307   -3.0574    4.7630 N.3       1 <0>        -0.5120
     13 C9         -1.0461   -1.7035    5.2316 C.3       1 <0>         0.0097
     14 C10        -0.3493   -1.9358    6.6080 C.3       1 <0>         0.0549
     15 C11         0.3176   -3.3316    6.3361 C.3       1 <0>        -0.1925
     16 C12        -1.0250   -3.9950    5.8584 C.3       1 <0>         0.0282
     17 C13        -1.9386   -3.5845    7.0557 C.3       1 <0>         0.0580
     18 O2         -1.4369   -2.3087    7.5001 O.3       1 <0>        -0.3767
     19 C14        -0.6083   -2.4541   -1.4032 C.ar      1 <0>        -0.0654
     20 C15         0.4474   -3.3460   -1.4362 C.ar      1 <0>        -0.1018
     21 C16         1.0932   -3.6088   -2.6298 C.ar      1 <0>        -0.1161
     22 C17         0.6830   -2.9801   -3.7906 C.ar      1 <0>        -0.1171
     23 C18        -0.3733   -2.0889   -3.7578 C.ar      1 <0>        -0.1167
     24 C19        -1.0218   -1.8294   -2.5649 C.ar      1 <0>        -0.1125
     25 C20        -4.8386   -0.9812    0.0303 C.ar      1 <0>         0.1624
     26 C21        -5.6068   -1.3651   -1.0616 C.ar      1 <0>        -0.1333
     27 C22        -6.9726   -1.1476   -1.0548 C.ar      1 <0>         0.1108
     28 C23        -7.5746   -0.5478    0.0391 C.ar      1 <0>        -0.1205
     29 C24        -6.8130   -0.1644    1.1275 C.ar      1 <0>        -0.1088
     30 C25        -5.4476   -0.3840    1.1299 C.ar      1 <0>         0.1007
     31 F1         -4.7051   -0.0145    2.1963 F         1 <0>        -0.1182
     32 F2         -7.7205   -1.5203   -2.1164 F         1 <0>        -0.1264
     33 H1          0.5873    2.1024    0.6698 H         1 <0>         0.0836
     34 H2         -0.8745    2.0466   -0.3442 H         1 <0>         0.0911
     35 H3         -1.0045    1.8282    1.4176 H         1 <0>         0.0930
     36 H4         -3.1082   -3.2167    0.5706 H         1 <0>         0.1003
     37 H5         -3.0596   -2.8854   -1.1923 H         1 <0>         0.0933
     38 H6         -0.7397   -4.0044    0.8673 H         1 <0>         0.0743
     39 H7          0.3930   -2.6549    1.1210 H         1 <0>         0.0878
     40 H8         -1.2521   -1.5198    2.5644 H         1 <0>         0.0633
     41 H9         -2.4269   -2.8256    2.2763 H         1 <0>         0.0672
     42 H10        -0.8654   -4.4565    3.3013 H         1 <0>         0.0750
     43 H11         0.3093   -3.1507    3.5894 H         1 <0>         0.0400
     44 H12        -0.3522   -1.2423    4.5288 H         1 <0>         0.0676
     45 H13        -1.9314   -1.0799    5.3556 H         1 <0>         0.0909
     46 H14         0.3025   -1.1350    6.9572 H         1 <0>         0.1386
     47 H15         1.0654   -3.2884    5.5442 H         1 <0>         0.0849
     48 H16         0.7084   -3.7902    7.2444 H         1 <0>         0.0895
     49 H17        -0.9858   -5.0535    5.6009 H         1 <0>         0.1286
     50 H18        -2.9731   -3.4891    6.7257 H         1 <0>         0.0804
     51 H19        -1.8636   -4.3195    7.8571 H         1 <0>         0.0740
     52 H20         0.7679   -3.8372   -0.5293 H         1 <0>         0.1268
     53 H21         1.9184   -4.3051   -2.6554 H         1 <0>         0.1239
     54 H22         1.1879   -3.1849   -4.7230 H         1 <0>         0.1226
     55 H23        -0.6935   -1.5975   -4.6646 H         1 <0>         0.1220
     56 H24        -1.8494   -1.1359   -2.5399 H         1 <0>         0.1125
     57 H25        -5.1381   -1.8325   -1.9150 H         1 <0>         0.1502
     58 H26        -8.6413   -0.3788    0.0417 H         1 <0>         0.1540
     59 H27        -7.2856    0.3030    1.9787 H         1 <0>         0.1568
@<TRIPOS>BOND
     1    1    2 1
     2    1   33 1
     3    1   34 1
     4    1   35 1
     5    2    3 2
     6    2    4 1
     7    4    8 1
     8    4    5 2
     9    5    6 1
    10    6    7 1
    11    6   25 1
    12    7    8 1
    13    7   36 1
    14    7   37 1
    15    8    9 1
    16    8   19 1
    17    9   10 1
    18    9   38 1
    19    9   39 1
    20   10   11 1
    21   10   40 1
    22   10   41 1
    23   11   12 1
    24   11   42 1
    25   11   43 1
    26   12   16 1
    27   12   13 1
    28   13   14 1
    29   13   44 1
    30   13   45 1
    31   14   18 1
    32   14   15 1
    33   14   46 1
    34   15   16 1
    35   15   47 1
    36   15   48 1
    37   16   17 1
    38   16   49 1
    39   17   18 1
    40   17   50 1
    41   17   51 1
    42   19   24 ar
    43   19   20 ar
    44   20   21 ar
    45   20   52 1
    46   21   22 ar
    47   21   53 1
    48   22   23 ar
    49   22   54 1
    50   23   24 ar
    51   23   55 1
    52   24   56 1
    53   25   30 ar
    54   25   26 ar
    55   26   27 ar
    56   26   57 1
    57   27   28 ar
    58   27   32 1
    59   28   29 ar
    60   28   58 1
    61   29   30 ar
    62   29   59 1
    63   30   31 1
@<TRIPOS>MOLECULE
CHEMBL246603__1
   60    64     0     0     0
SMALL
USER_CHARGES

@<TRIPOS>ATOM
      1 C1         -0.3882    1.6339    0.5398 C.3       1 <0>        -0.1963
      2 C2         -0.2126    0.1470    0.3685 C.2       1 <0>         0.4346
      3 O1          0.9002   -0.3397    0.3903 O.2       1 <0>        -0.4530
      4 C3         -1.3382   -0.6780    0.1832 C.2       1 <0>        -0.0815
      5 N1         -2.5790   -0.2941    0.2211 N.2       1 <0>        -0.1229
      6 N2         -3.4594   -1.1991    0.0268 N.pl3     1 <0>        -0.3911
      7 C4         -2.8171   -2.5035   -0.2006 C.3       1 <0>         0.0632
      8 C5         -1.3122   -2.1676   -0.1019 C.3       1 <0>         0.0106
      9 C6         -0.6586   -2.9329    1.0505 C.3       1 <0>        -0.1013
     10 C7         -1.3673   -2.5845    2.3610 C.3       1 <0>        -0.1518
     11 C8         -0.7503   -3.3919    3.5047 C.3       1 <0>        -0.0074
     12 N3         -1.4307   -3.0574    4.7630 N.4       1 <0>        -0.3975
     13 C9         -1.1096   -1.6660    5.1646 C.3       1 <0>        -0.0443
     14 C10        -0.3424   -1.8029    6.5161 C.3       1 <0>         0.0756
     15 C11         0.3960   -3.1663    6.2656 C.3       1 <0>        -0.1727
     16 C12        -0.9227   -3.9261    5.8725 C.3       1 <0>        -0.0047
     17 C13        -1.8082   -3.5241    7.0936 C.3       1 <0>         0.0279
     18 O2         -1.3667   -2.2046    7.4688 O.3       1 <0>        -0.3536
     19 C14        -0.6083   -2.4541   -1.4032 C.ar      1 <0>        -0.0761
     20 C15         0.4474   -3.3460   -1.4362 C.ar      1 <0>        -0.1045
     21 C16         1.0931   -3.6088   -2.6298 C.ar      1 <0>        -0.1137
     22 C17         0.6830   -2.9801   -3.7906 C.ar      1 <0>        -0.1098
     23 C18        -0.3733   -2.0889   -3.7578 C.ar      1 <0>        -0.1121
     24 C19        -1.0218   -1.8294   -2.5649 C.ar      1 <0>        -0.1108
     25 C20        -4.8386   -0.9812    0.0303 C.ar      1 <0>         0.1548
     26 C21        -5.6068   -1.3651   -1.0616 C.ar      1 <0>        -0.1321
     27 C22        -6.9726   -1.1476   -1.0548 C.ar      1 <0>         0.1190
     28 C23        -7.5746   -0.5478    0.0391 C.ar      1 <0>        -0.1158
     29 C24        -6.8130   -0.1644    1.1275 C.ar      1 <0>        -0.1058
     30 C25        -5.4476   -0.3840    1.1299 C.ar      1 <0>         0.0944
     31 F1         -4.7051   -0.0145    2.1963 F         1 <0>        -0.1269
     32 F2         -7.7205   -1.5203   -2.1164 F         1 <0>        -0.1207
     33 H1          0.5873    2.1024    0.6698 H         1 <0>         0.0871
     34 H2         -0.8745    2.0466   -0.3442 H         1 <0>         0.0945
     35 H3         -1.0045    1.8282    1.4176 H         1 <0>         0.0920
     36 H4         -3.1082   -3.2167    0.5706 H         1 <0>         0.0957
     37 H5         -3.0596   -2.8854   -1.1923 H         1 <0>         0.1000
     38 H6         -0.7397   -4.0044    0.8673 H         1 <0>         0.0865
     39 H7          0.3930   -2.6549    1.1210 H         1 <0>         0.1013
     40 H8         -1.2521   -1.5198    2.5644 H         1 <0>         0.0887
     41 H9         -2.4269   -2.8256    2.2763 H         1 <0>         0.0832
     42 H10        -0.8654   -4.4565    3.3013 H         1 <0>         0.1328
     43 H11         0.3093   -3.1507    3.5894 H         1 <0>         0.1330
     44 H12        -0.4754   -1.1921    4.4154 H         1 <0>         0.1423
     45 H13        -2.0252   -1.0915    5.3053 H         1 <0>         0.1443
     46 H14         0.2736   -0.9520    6.8067 H         1 <0>         0.1800
     47 H15         1.1056   -3.1098    5.4401 H         1 <0>         0.1154
     48 H16         0.8520   -3.5654    7.1716 H         1 <0>         0.1347
     49 H17        -0.8302   -4.9896    5.6521 H         1 <0>         0.1867
     50 H18        -2.8596   -3.5030    6.8068 H         1 <0>         0.0968
     51 H19        -1.6548   -4.2217    7.9170 H         1 <0>         0.1212
     52 H20         0.7679   -3.8372   -0.5293 H         1 <0>         0.1235
     53 H21         1.9184   -4.3051   -2.6554 H         1 <0>         0.1268
     54 H22         1.1879   -3.1849   -4.7230 H         1 <0>         0.1270
     55 H23        -0.6935   -1.5975   -4.6646 H         1 <0>         0.1259
     56 H24        -1.8494   -1.1359   -2.5399 H         1 <0>         0.1127
     57 H25        -5.1381   -1.8325   -1.9150 H         1 <0>         0.1524
     58 H26        -8.6413   -0.3788    0.0417 H         1 <0>         0.1583
     59 H27        -7.2856    0.3030    1.9787 H         1 <0>         0.1586
     60 H28        -2.4281   -3.1702    4.6608 H         1 <0>         0.4250
@<TRIPOS>BOND
     1    1    2 1
     2    1   33 1
     3    1   34 1
     4    1   35 1
     5    2    3 2
     6    2    4 1
     7    4    8 1
     8    4    5 2
     9    5    6 1
    10    6    7 1
    11    6   25 1
    12    7    8 1
    13    7   36 1
    14    7   37 1
    15    8    9 1
    16    8   19 1
    17    9   10 1
    18    9   38 1
    19    9   39 1
    20   10   11 1
    21   10   40 1
    22   10   41 1
    23   11   12 1
    24   11   42 1
    25   11   43 1
    26   12   16 1
    27   12   13 1
    28   12   60 1
    29   13   14 1
    30   13   44 1
    31   13   45 1
    32   14   18 1
    33   14   15 1
    34   14   46 1
    35   15   16 1
    36   15   47 1
    37   15   48 1
    38   16   17 1
    39   16   49 1
    40   17   18 1
    41   17   50 1
    42   17   51 1
    43   19   24 ar
    44   19   20 ar
    45   20   21 ar
    46   20   52 1
    47   21   22 ar
    48   21   53 1
    49   22   23 ar
    50   22   54 1
    51   23   24 ar
    52   23   55 1
    53   24   56 1
    54   25   30 ar
    55   25   26 ar
    56   26   27 ar
    57   26   57 1
    58   27   28 ar
    59   27   32 1
    60   28   29 ar
    61   28   58 1
    62   29   30 ar
    63   29   59 1
    64   30   31 1
@<TRIPOS>MOLECULE
CHEMBL246603__2
   59    63     0     0     0
SMALL
USER_CHARGES

@<TRIPOS>ATOM
      1 C1         -1.2841    1.3103    0.1175 C.3       1 <0>        -0.1932
      2 C2         -0.8920   -0.1436    0.0599 C.2       1 <0>         0.4350
      3 O1          0.2818   -0.4566    0.0607 O.2       1 <0>        -0.4531
      4 C3         -1.8859   -1.1391    0.0051 C.2       1 <0>        -0.0669
      5 N1         -3.1679   -0.9412    0.0815 N.2       1 <0>        -0.1304
      6 N2         -3.9080   -1.9799    0.0105 N.pl3     1 <0>        -0.3934
      7 C4         -3.0851   -3.1899   -0.1467 C.3       1 <0>         0.0673
      8 C5         -1.6460   -2.6278   -0.1599 C.3       1 <0>         0.0065
      9 C6         -0.8343   -3.1834    1.0120 C.3       1 <0>        -0.1050
     10 C7         -1.5340   -2.8355    2.3274 C.3       1 <0>        -0.1091
     11 C8         -0.7565   -3.4455    3.4954 C.3       1 <0>         0.0436
     12 N3         -1.4282   -3.1115    4.7584 N.3       1 <0>        -0.5132
     13 C9         -1.1136   -1.7236    5.1770 C.3       1 <0>         0.0094
     14 C10        -0.4929   -1.8627    6.6015 C.3       1 <0>         0.0506
     15 C11        -1.2994   -3.1056    7.1227 C.3       1 <0>        -0.1538
     16 C12        -0.9450   -3.9892    5.8720 C.3       1 <0>         0.0291
     17 C13         0.6026   -3.7850    5.8606 C.3       1 <0>         0.0092
     18 O2          0.8165   -2.4519    6.3643 O.3       1 <0>        -0.3771
     19 C14        -0.9637   -2.9206   -1.4713 C.ar      1 <0>        -0.0656
     20 C15         0.2243   -3.6272   -1.4897 C.ar      1 <0>        -0.1013
     21 C16         0.8502   -3.8958   -2.6925 C.ar      1 <0>        -0.1160
     22 C17         0.2879   -3.4582   -3.8771 C.ar      1 <0>        -0.1171
     23 C18        -0.9005   -2.7524   -3.8588 C.ar      1 <0>        -0.1169
     24 C19        -1.5286   -2.4875   -2.6562 C.ar      1 <0>        -0.1127
     25 C20        -5.3028   -1.9689    0.0737 C.ar      1 <0>         0.1632
     26 C21        -6.0502   -2.5570   -0.9389 C.ar      1 <0>        -0.1335
     27 C22        -7.4316   -2.5441   -0.8731 C.ar      1 <0>         0.1109
     28 C23        -8.0699   -1.9458    0.2009 C.ar      1 <0>        -0.1209
     29 C24        -7.3290   -1.3597    1.2104 C.ar      1 <0>        -0.1089
     30 C25        -5.9474   -1.3738    1.1540 C.ar      1 <0>         0.1003
     31 F1         -5.2242   -0.8061    2.1439 F         1 <0>        -0.1184
     32 F2         -8.1594   -3.1154   -1.8576 F         1 <0>        -0.1264
     33 H1         -0.3865    1.9275    0.1549 H         1 <0>         0.0837
     34 H2         -1.8640    1.5657   -0.7694 H         1 <0>         0.0909
     35 H3         -1.8855    1.4894    1.0088 H         1 <0>         0.0928
     36 H4         -3.2306   -3.8675    0.6946 H         1 <0>         0.1002
     37 H5         -3.3095   -3.6894   -1.0892 H         1 <0>         0.0932
     38 H6         -0.7551   -4.2664    0.9179 H         1 <0>         0.0742
     39 H7          0.1632   -2.7440    1.0037 H         1 <0>         0.0881
     40 H8         -1.5727   -1.7523    2.4429 H         1 <0>         0.0631
     41 H9         -2.5476   -3.2363    2.3169 H         1 <0>         0.0667
     42 H10        -0.7177   -4.5287    3.3799 H         1 <0>         0.0741
     43 H11         0.2571   -3.0448    3.5060 H         1 <0>         0.0473
     44 H12        -0.3937   -1.2754    4.4922 H         1 <0>         0.0684
     45 H13        -2.0233   -1.1246    5.2170 H         1 <0>         0.0871
     46 H14        -0.5088   -0.9664    7.2216 H         1 <0>         0.1406
     47 H15        -0.8889   -3.5100    8.0479 H         1 <0>         0.0887
     48 H16        -2.3679   -2.9052    7.2014 H         1 <0>         0.0954
     49 H17        -1.3127   -5.0153    5.8749 H         1 <0>         0.1336
     50 H18         1.0845   -4.5158    6.5101 H         1 <0>         0.0744
     51 H19         0.9871   -3.8707    4.8443 H         1 <0>         0.0769
     52 H20         0.6636   -3.9691   -0.5642 H         1 <0>         0.1270
     53 H21         1.7787   -4.4473   -2.7068 H         1 <0>         0.1240
     54 H22         0.7773   -3.6674   -4.8169 H         1 <0>         0.1226
     55 H23        -1.3396   -2.4102   -4.7843 H         1 <0>         0.1220
     56 H24        -2.4590   -1.9392   -2.6422 H         1 <0>         0.1124
     57 H25        -5.5532   -3.0233   -1.7767 H         1 <0>         0.1503
     58 H26        -9.1487   -1.9369    0.2497 H         1 <0>         0.1539
     59 H27        -7.8299   -0.8941    2.0464 H         1 <0>         0.1565
@<TRIPOS>BOND
     1    1    2 1
     2    1   33 1
     3    1   34 1
     4    1   35 1
     5    2    3 2
     6    2    4 1
     7    4    8 1
     8    4    5 2
     9    5    6 1
    10    6    7 1
    11    6   25 1
    12    7    8 1
    13    7   36 1
    14    7   37 1
    15    8    9 1
    16    8   19 1
    17    9   10 1
    18    9   38 1
    19    9   39 1
    20   10   11 1
    21   10   40 1
    22   10   41 1
    23   11   12 1
    24   11   42 1
    25   11   43 1
    26   12   16 1
    27   12   13 1
    28   13   14 1
    29   13   44 1
    30   13   45 1
    31   14   18 1
    32   14   15 1
    33   14   46 1
    34   15   16 1
    35   15   47 1
    36   15   48 1
    37   16   17 1
    38   16   49 1
    39   17   18 1
    40   17   50 1
    41   17   51 1
    42   19   24 ar
    43   19   20 ar
    44   20   21 ar
    45   20   52 1
    46   21   22 ar
    47   21   53 1
    48   22   23 ar
    49   22   54 1
    50   23   24 ar
    51   23   55 1
    52   24   56 1
    53   25   30 ar
    54   25   26 ar
    55   26   27 ar
    56   26   57 1
    57   27   28 ar
    58   27   32 1
    59   28   29 ar
    60   28   58 1
    61   29   30 ar
    62   29   59 1
    63   30   31 1
@<TRIPOS>MOLECULE
CHEMBL246603__3
   60    64     0     0     0
SMALL
USER_CHARGES

@<TRIPOS>ATOM
      1 C1         -1.0006    1.4681    0.2298 C.3       1 <0>        -0.1959
      2 C2         -0.6715   -0.0002    0.1478 C.2       1 <0>         0.4337
      3 O1          0.4870   -0.3652    0.1694 O.2       1 <0>        -0.4516
      4 C3         -1.7066   -0.9490    0.0463 C.2       1 <0>        -0.0796
      5 N1         -2.9801   -0.6957    0.0953 N.2       1 <0>        -0.1239
      6 N2         -3.7632   -1.6987   -0.0171 N.pl3     1 <0>        -0.3919
      7 C4         -2.9907   -2.9406   -0.1808 C.3       1 <0>         0.0635
      8 C5         -1.5283   -2.4431   -0.1458 C.3       1 <0>         0.0106
      9 C6         -0.7723   -3.0590    1.0332 C.3       1 <0>        -0.1020
     10 C7         -1.4861   -2.7028    2.3388 C.3       1 <0>        -0.1492
     11 C8         -0.7702   -3.3759    3.5115 C.3       1 <0>        -0.0145
     12 N3         -1.4555   -3.0340    4.7651 N.4       1 <0>        -0.3966
     13 C9         -1.2323   -1.6057    5.0977 C.3       1 <0>        -0.0449
     14 C10        -0.5541   -1.6198    6.5025 C.3       1 <0>         0.0748
     15 C11        -1.2459   -2.8880    7.1190 C.3       1 <0>        -0.1728
     16 C12        -0.8692   -3.8109    5.9037 C.3       1 <0>        -0.0051
     17 C13         0.6572   -3.4944    5.8219 C.3       1 <0>         0.0198
     18 O2          0.7871   -2.1233    6.2463 O.3       1 <0>        -0.3521
     19 C14        -0.8260   -2.7383   -1.4460 C.ar      1 <0>        -0.0762
     20 C15         0.3170   -3.5158   -1.4532 C.ar      1 <0>        -0.1044
     21 C16         0.9612   -3.7866   -2.6459 C.ar      1 <0>        -0.1136
     22 C17         0.4622   -3.2803   -3.8314 C.ar      1 <0>        -0.1098
     23 C18        -0.6813   -2.5035   -3.8244 C.ar      1 <0>        -0.1122
     24 C19        -1.3279   -2.2363   -2.6322 C.ar      1 <0>        -0.1108
     25 C20        -5.1573   -1.6268    0.0117 C.ar      1 <0>         0.1557
     26 C21        -5.9036   -2.1594   -1.0320 C.ar      1 <0>        -0.1323
     27 C22        -7.2843   -2.0864   -1.0001 C.ar      1 <0>         0.1193
     28 C23        -7.9230   -1.4830    0.0708 C.ar      1 <0>        -0.1163
     29 C24        -7.1833   -0.9519    1.1111 C.ar      1 <0>        -0.1058
     30 C25        -5.8027   -1.0265    1.0886 C.ar      1 <0>         0.0940
     31 F1         -5.0809   -0.5126    2.1085 F         1 <0>        -0.1274
     32 F2         -8.0109   -2.6037   -2.0148 F         1 <0>        -0.1207
     33 H1         -0.0779    2.0437    0.3029 H         1 <0>         0.0872
     34 H2         -1.5464    1.7686   -0.6645 H         1 <0>         0.0943
     35 H3         -1.6155    1.6540    1.1104 H         1 <0>         0.0918
     36 H4         -3.1875   -3.6287    0.6414 H         1 <0>         0.0956
     37 H5         -3.2124   -3.4096   -1.1394 H         1 <0>         0.1000
     38 H6         -0.7424   -4.1426    0.9194 H         1 <0>         0.0867
     39 H7          0.2448   -2.6679    1.0568 H         1 <0>         0.1016
     40 H8         -1.4727   -1.6217    2.4771 H         1 <0>         0.0888
     41 H9         -2.5182   -3.0507    2.2952 H         1 <0>         0.0832
     42 H10        -0.7836   -4.4570    3.3733 H         1 <0>         0.1343
     43 H11         0.2619   -3.0280    3.5551 H         1 <0>         0.1386
     44 H12        -0.5724   -1.1443    4.3631 H         1 <0>         0.1441
     45 H13        -2.1828   -1.0739    5.1413 H         1 <0>         0.1425
     46 H14        -0.6162   -0.6942    7.0748 H         1 <0>         0.1798
     47 H15        -0.7743   -3.2094    8.0476 H         1 <0>         0.1348
     48 H16        -2.3232   -2.7627    7.2283 H         1 <0>         0.1162
     49 H17        -1.1580   -4.8595    5.9748 H         1 <0>         0.1868
     50 H18         1.2151   -4.1507    6.4899 H         1 <0>         0.1188
     51 H19         1.0118   -3.6076    4.7975 H         1 <0>         0.1028
     52 H20         0.7068   -3.9113   -0.5269 H         1 <0>         0.1236
     53 H21         1.8546   -4.3934   -2.6514 H         1 <0>         0.1268
     54 H22         0.9660   -3.4912   -4.7632 H         1 <0>         0.1270
     55 H23        -1.0709   -2.1077   -4.7506 H         1 <0>         0.1259
     56 H24        -2.2234   -1.6326   -2.6271 H         1 <0>         0.1127
     57 H25        -5.4062   -2.6296   -1.8674 H         1 <0>         0.1525
     58 H26        -9.0014   -1.4270    0.0929 H         1 <0>         0.1582
     59 H27        -7.6846   -0.4822    1.9445 H         1 <0>         0.1584
     60 H28        -2.4432   -3.2240    4.6856 H         1 <0>         0.4253
@<TRIPOS>BOND
     1    1    2 1
     2    1   33 1
     3    1   34 1
     4    1   35 1
     5    2    3 2
     6    2    4 1
     7    4    8 1
     8    4    5 2
     9    5    6 1
    10    6    7 1
    11    6   25 1
    12    7    8 1
    13    7   36 1
    14    7   37 1
    15    8    9 1
    16    8   19 1
    17    9   10 1
    18    9   38 1
    19    9   39 1
    20   10   11 1
    21   10   40 1
    22   10   41 1
    23   11   12 1
    24   11   42 1
    25   11   43 1
    26   12   16 1
    27   12   13 1
    28   12   60 1
    29   13   14 1
    30   13   44 1
    31   13   45 1
    32   14   18 1
    33   14   15 1
    34   14   46 1
    35   15   16 1
    36   15   47 1
    37   15   48 1
    38   16   17 1
    39   16   49 1
    40   17   18 1
    41   17   50 1
    42   17   51 1
    43   19   24 ar
    44   19   20 ar
    45   20   21 ar
    46   20   52 1
    47   21   22 ar
    48   21   53 1
    49   22   23 ar
    50   22   54 1
    51   23   24 ar
    52   23   55 1
    53   24   56 1
    54   25   30 ar
    55   25   26 ar
    56   26   27 ar
    57   26   57 1
    58   27   28 ar
    59   27   32 1
    60   28   29 ar
    61   28   58 1
    62   29   30 ar
    63   29   59 1
    64   30   31 1
@<TRIPOS>MOLECULE
CHEMBL246603__4
   59    63     0     0     0
SMALL
USER_CHARGES

@<TRIPOS>ATOM
      1 C1         -0.3234    1.5861    0.1950 C.3       1 <0>        -0.1933
      2 C2         -0.1838    0.0863    0.1480 C.2       1 <0>         0.4356
      3 O1          0.9192   -0.4221    0.1710 O.2       1 <0>        -0.4526
      4 C3         -1.3318   -0.7256    0.0776 C.2       1 <0>        -0.0647
      5 N1         -2.5621   -0.3141    0.1516 N.2       1 <0>        -0.1304
      6 N2         -3.4670   -1.2115    0.0653 N.pl3     1 <0>        -0.3945
      7 C4         -2.8603   -2.5416   -0.1035 C.3       1 <0>         0.0677
      8 C5         -1.3467   -2.2314   -0.1046 C.3       1 <0>         0.0060
      9 C6         -0.7067   -2.6268   -1.4369 C.3       1 <0>        -0.1043
     10 C7         -1.4011   -1.8801   -2.5776 C.3       1 <0>        -0.1131
     11 C8         -0.6825   -2.1794   -3.8949 C.3       1 <0>         0.0467
     12 N3         -1.3492   -1.4625   -4.9901 N.3       1 <0>        -0.5118
     13 C9         -2.6543   -2.0869   -5.3174 C.3       1 <0>         0.0093
     14 C10        -2.5127   -2.5668   -6.7951 C.3       1 <0>         0.0546
     15 C11        -0.9852   -2.9318   -6.8108 C.3       1 <0>        -0.1923
     16 C12        -0.5400   -1.5330   -6.2488 C.3       1 <0>         0.0289
     17 C13        -1.3176   -0.6132   -7.2418 C.3       1 <0>         0.0574
     18 O2         -2.5196   -1.3364   -7.5722 O.3       1 <0>        -0.3765
     19 C14        -0.6580   -2.9193    1.0459 C.ar      1 <0>        -0.0643
     20 C15         0.4383   -3.7280    0.8115 C.ar      1 <0>        -0.0995
     21 C16         1.0700   -4.3590    1.8669 C.ar      1 <0>        -0.1168
     22 C17         0.6056   -4.1809    3.1567 C.ar      1 <0>        -0.1171
     23 C18        -0.4902   -3.3715    3.3912 C.ar      1 <0>        -0.1169
     24 C19        -1.1192   -2.7371    2.3363 C.ar      1 <0>        -0.1116
     25 C20        -4.8402   -0.9649    0.1234 C.ar      1 <0>         0.1644
     26 C21        -5.6707   -1.4063   -0.8990 C.ar      1 <0>        -0.1323
     27 C22        -7.0302   -1.1602   -0.8381 C.ar      1 <0>         0.1121
     28 C23        -7.5640   -0.4745    0.2407 C.ar      1 <0>        -0.1212
     29 C24        -6.7403   -0.0339    1.2600 C.ar      1 <0>        -0.1080
     30 C25        -5.3807   -0.2814    1.2085 C.ar      1 <0>         0.0974
     31 F1         -4.5774    0.1444    2.2078 F         1 <0>        -0.1205
     32 F2         -7.8386   -1.5887   -1.8321 F         1 <0>        -0.1259
     33 H1          0.6655    2.0416    0.2472 H         1 <0>         0.0837
     34 H2         -0.8356    1.9316   -0.7030 H         1 <0>         0.0920
     35 H3         -0.9010    1.8699    1.0747 H         1 <0>         0.0923
     36 H4         -3.1233   -3.1942    0.7290 H         1 <0>         0.0948
     37 H5         -3.1606   -2.9851   -1.0528 H         1 <0>         0.0957
     38 H6          0.3516   -2.3662   -1.4231 H         1 <0>         0.0878
     39 H7         -0.8145   -3.7010   -1.5871 H         1 <0>         0.0737
     40 H8         -2.4386   -2.2069   -2.6473 H         1 <0>         0.0577
     41 H9         -1.3701   -0.8083   -2.3822 H         1 <0>         0.0732
     42 H10         0.3550   -1.8526   -3.8251 H         1 <0>         0.0776
     43 H11        -0.7135   -3.2512   -4.0903 H         1 <0>         0.0385
     44 H12        -2.8437   -2.9355   -4.6601 H         1 <0>         0.0656
     45 H13        -3.4568   -1.3542   -5.2323 H         1 <0>         0.0903
     46 H14        -3.2101   -3.3400   -7.1175 H         1 <0>         0.1381
     47 H15        -0.7455   -3.7491   -6.1306 H         1 <0>         0.0844
     48 H16        -0.6110   -3.1138   -7.8183 H         1 <0>         0.0899
     49 H17         0.5317   -1.3628   -6.1463 H         1 <0>         0.1297
     50 H18        -1.5665    0.3339   -6.7631 H         1 <0>         0.0814
     51 H19        -0.7234   -0.4389   -8.1389 H         1 <0>         0.0748
     52 H20         0.8011   -3.8672   -0.1961 H         1 <0>         0.1260
     53 H21         1.9261   -4.9914    1.6837 H         1 <0>         0.1235
     54 H22         1.0987   -4.6744    3.9811 H         1 <0>         0.1222
     55 H23        -0.8532   -3.2326    4.3988 H         1 <0>         0.1216
     56 H24        -1.9730   -2.1017    2.5199 H         1 <0>         0.1125
     57 H25        -5.2551   -1.9406   -1.7405 H         1 <0>         0.1497
     58 H26        -8.6260   -0.2834    0.2856 H         1 <0>         0.1542
     59 H27        -7.1598    0.5004    2.0996 H         1 <0>         0.1567
@<TRIPOS>BOND
     1    1    2 1
     2    1   33 1
     3    1   34 1
     4    1   35 1
     5    2    3 2
     6    2    4 1
     7    4    8 1
     8    4    5 2
     9    5    6 1
    10    6    7 1
    11    6   25 1
    12    7    8 1
    13    7   36 1
    14    7   37 1
    15    8    9 1
    16    8   19 1
    17    9   10 1
    18    9   38 1
    19    9   39 1
    20   10   11 1
    21   10   40 1
    22   10   41 1
    23   11   12 1
    24   11   42 1
    25   11   43 1
    26   12   16 1
    27   12   13 1
    28   13   14 1
    29   13   44 1
    30   13   45 1
    31   14   18 1
    32   14   15 1
    33   14   46 1
    34   15   16 1
    35   15   47 1
    36   15   48 1
    37   16   17 1
    38   16   49 1
    39   17   18 1
    40   17   50 1
    41   17   51 1
    42   19   24 ar
    43   19   20 ar
    44   20   21 ar
    45   20   52 1
    46   21   22 ar
    47   21   53 1
    48   22   23 ar
    49   22   54 1
    50   23   24 ar
    51   23   55 1
    52   24   56 1
    53   25   30 ar
    54   25   26 ar
    55   26   27 ar
    56   26   57 1
    57   27   28 ar
    58   27   32 1
    59   28   29 ar
    60   28   58 1
    61   29   30 ar
    62   29   59 1
    63   30   31 1
@<TRIPOS>MOLECULE
CHEMBL246603__5
   60    64     0     0     0
SMALL
USER_CHARGES

@<TRIPOS>ATOM
      1 C1         -0.3233    1.5861    0.1949 C.3       1 <0>        -0.1953
      2 C2         -0.1838    0.0863    0.1480 C.2       1 <0>         0.4318
      3 O1          0.9193   -0.4221    0.1709 O.2       1 <0>        -0.4487
      4 C3         -1.3317   -0.7256    0.0776 C.2       1 <0>        -0.0799
      5 N1         -2.5620   -0.3140    0.1517 N.2       1 <0>        -0.1244
      6 N2         -3.4670   -1.2114    0.0654 N.pl3     1 <0>        -0.3912
      7 C4         -2.8603   -2.5415   -0.1034 C.3       1 <0>         0.0641
      8 C5         -1.3467   -2.2314   -0.1045 C.3       1 <0>         0.0100
      9 C6         -0.7068   -2.6268   -1.4369 C.3       1 <0>        -0.1014
     10 C7         -1.4011   -1.8801   -2.5776 C.3       1 <0>        -0.1526
     11 C8         -0.6826   -2.1794   -3.8948 C.3       1 <0>        -0.0076
     12 N3         -1.3493   -1.4625   -4.9901 N.4       1 <0>        -0.3982
     13 C9         -2.6927   -2.0407   -5.2378 C.3       1 <0>        -0.0445
     14 C10        -2.6248   -2.6126   -6.6877 C.3       1 <0>         0.0750
     15 C11        -1.1174   -3.0519   -6.7297 C.3       1 <0>        -0.1725
     16 C12        -0.5882   -1.6459   -6.2672 C.3       1 <0>        -0.0039
     17 C13        -1.3557   -0.7491   -7.2887 C.3       1 <0>         0.0274
     18 O2         -2.6008   -1.4309   -7.5367 O.3       1 <0>        -0.3533
     19 C14        -0.6580   -2.9193    1.0459 C.ar      1 <0>        -0.0750
     20 C15         0.4383   -3.7280    0.8115 C.ar      1 <0>        -0.1023
     21 C16         1.0700   -4.3590    1.8669 C.ar      1 <0>        -0.1144
     22 C17         0.6057   -4.1808    3.1566 C.ar      1 <0>        -0.1099
     23 C18        -0.4901   -3.3714    3.3912 C.ar      1 <0>        -0.1124
     24 C19        -1.1191   -2.7370    2.3363 C.ar      1 <0>        -0.1099
     25 C20        -4.8401   -0.9648    0.1236 C.ar      1 <0>         0.1530
     26 C21        -5.6707   -1.4062   -0.8988 C.ar      1 <0>        -0.1355
     27 C22        -7.0302   -1.1601   -0.8379 C.ar      1 <0>         0.1122
     28 C23        -7.5639   -0.4744    0.2410 C.ar      1 <0>        -0.1142
     29 C24        -6.7402   -0.0337    1.2602 C.ar      1 <0>        -0.1038
     30 C25        -5.3806   -0.2812    1.2086 C.ar      1 <0>         0.1024
     31 F1         -4.5773    0.1445    2.2079 F         1 <0>        -0.1179
     32 F2         -7.8387   -1.5885   -1.8318 F         1 <0>        -0.1244
     33 H1          0.6656    2.0416    0.2471 H         1 <0>         0.0870
     34 H2         -0.8355    1.9317   -0.7031 H         1 <0>         0.0886
     35 H3         -0.9009    1.8699    1.0746 H         1 <0>         0.0962
     36 H4         -3.1233   -3.1941    0.7291 H         1 <0>         0.1014
     37 H5         -3.1607   -2.9851   -1.0527 H         1 <0>         0.0935
     38 H6          0.3515   -2.3662   -1.4232 H         1 <0>         0.0990
     39 H7         -0.8146   -3.7010   -1.5871 H         1 <0>         0.0882
     40 H8         -2.4387   -2.2069   -2.6473 H         1 <0>         0.0834
     41 H9         -1.3702   -0.8083   -2.3822 H         1 <0>         0.0889
     42 H10         0.3549   -1.8526   -3.8252 H         1 <0>         0.1348
     43 H11        -0.7136   -3.2513   -4.0903 H         1 <0>         0.1319
     44 H12        -2.8988   -2.8390   -4.5249 H         1 <0>         0.1403
     45 H13        -3.4566   -1.2660   -5.1716 H         1 <0>         0.1436
     46 H14        -3.3683   -3.3684   -6.9408 H         1 <0>         0.1795
     47 H15        -0.8929   -3.8387   -6.0095 H         1 <0>         0.1147
     48 H16        -0.7872   -3.3106   -7.7358 H         1 <0>         0.1348
     49 H17         0.4932   -1.5225   -6.2091 H         1 <0>         0.1875
     50 H18        -1.5433    0.2354   -6.8602 H         1 <0>         0.0978
     51 H19        -0.7853   -0.6568   -8.2129 H         1 <0>         0.1218
     52 H20         0.8011   -3.8672   -0.1962 H         1 <0>         0.1227
     53 H21         1.9261   -4.9914    1.6836 H         1 <0>         0.1263
     54 H22         1.0988   -4.6744    3.9811 H         1 <0>         0.1266
     55 H23        -0.8530   -3.2325    4.3988 H         1 <0>         0.1254
     56 H24        -1.9729   -2.1016    2.5199 H         1 <0>         0.1127
     57 H25        -5.2551   -1.9405   -1.7403 H         1 <0>         0.1448
     58 H26        -8.6259   -0.2832    0.2859 H         1 <0>         0.1582
     59 H27        -7.1596    0.5006    2.0998 H         1 <0>         0.1607
     60 H28        -1.4267   -0.4812   -4.7685 H         1 <0>         0.4265
@<TRIPOS>BOND
     1    1    2 1
     2    1   33 1
     3    1   34 1
     4    1   35 1
     5    2    3 2
     6    2    4 1
     7    4    8 1
     8    4    5 2
     9    5    6 1
    10    6    7 1
    11    6   25 1
    12    7    8 1
    13    7   36 1
    14    7   37 1
    15    8    9 1
    16    8   19 1
    17    9   10 1
    18    9   38 1
    19    9   39 1
    20   10   11 1
    21   10   40 1
    22   10   41 1
    23   11   12 1
    24   11   42 1
    25   11   43 1
    26   12   16 1
    27   12   13 1
    28   12   60 1
    29   13   14 1
    30   13   44 1
    31   13   45 1
    32   14   18 1
    33   14   15 1
    34   14   46 1
    35   15   16 1
    36   15   47 1
    37   15   48 1
    38   16   17 1
    39   16   49 1
    40   17   18 1
    41   17   50 1
    42   17   51 1
    43   19   24 ar
    44   19   20 ar
    45   20   21 ar
    46   20   52 1
    47   21   22 ar
    48   21   53 1
    49   22   23 ar
    50   22   54 1
    51   23   24 ar
    52   23   55 1
    53   24   56 1
    54   25   30 ar
    55   25   26 ar
    56   26   27 ar
    57   26   57 1
    58   27   28 ar
    59   27   32 1
    60   28   29 ar
    61   28   58 1
    62   29   30 ar
    63   29   59 1
    64   30   31 1
@<TRIPOS>MOLECULE
CHEMBL246603__6
   59    63     0     0     0
SMALL
USER_CHARGES

@<TRIPOS>ATOM
      1 C1          0.6622    1.7851   -0.2555 C.3       1 <0>        -0.1931
      2 C2          0.5714    0.2831   -0.1718 C.2       1 <0>         0.4355
      3 O1          1.5826   -0.3893   -0.2053 O.2       1 <0>        -0.4524
      4 C3         -0.6852   -0.3407   -0.0548 C.2       1 <0>        -0.0643
      5 N1         -1.8254    0.2643    0.0954 N.2       1 <0>        -0.1307
      6 N2         -2.8576   -0.4833    0.1820 N.pl3     1 <0>        -0.3946
      7 C4         -2.4771   -1.9016    0.0854 C.3       1 <0>         0.0675
      8 C5         -0.9433   -1.8350   -0.0888 C.3       1 <0>         0.0063
      9 C6         -0.5174   -2.4324   -1.4315 C.3       1 <0>        -0.1051
     10 C7         -1.2116   -1.6792   -2.5680 C.3       1 <0>        -0.1101
     11 C8         -0.6929   -2.1937   -3.9123 C.3       1 <0>         0.0435
     12 N3         -1.3594   -1.4705   -5.0035 N.3       1 <0>        -0.5130
     13 C9         -2.7218   -2.0064   -5.2421 C.3       1 <0>         0.0091
     14 C10        -2.7309   -2.4323   -6.7429 C.3       1 <0>         0.0502
     15 C11        -1.7627   -1.3455   -7.3333 C.3       1 <0>        -0.1540
     16 C12        -0.6223   -1.6497   -6.2952 C.3       1 <0>         0.0299
     17 C13        -0.5446   -3.1994   -6.4663 C.3       1 <0>         0.0090
     18 O2         -1.8870   -3.6173   -6.7827 O.3       1 <0>        -0.3778
     19 C14        -0.2440   -2.5279    1.0522 C.ar      1 <0>        -0.0645
     20 C15         0.6973   -3.5068    0.7937 C.ar      1 <0>        -0.0991
     21 C16         1.3388   -4.1423    1.8404 C.ar      1 <0>        -0.1167
     22 C17         1.0394   -3.7987    3.1454 C.ar      1 <0>        -0.1171
     23 C18         0.0988   -2.8191    3.4038 C.ar      1 <0>        -0.1171
     24 C19        -0.5396   -2.1806    2.3571 C.ar      1 <0>        -0.1118
     25 C20        -4.1644   -0.0194    0.3458 C.ar      1 <0>         0.1647
     26 C21        -5.1571   -0.4053   -0.5461 C.ar      1 <0>        -0.1323
     27 C22        -6.4503    0.0561   -0.3808 C.ar      1 <0>         0.1118
     28 C23        -6.7562    0.9020    0.6727 C.ar      1 <0>        -0.1214
     29 C24        -5.7707    1.2880    1.5622 C.ar      1 <0>        -0.1081
     30 C25        -4.4766    0.8259    1.4063 C.ar      1 <0>         0.0973
     31 F1         -3.5155    1.1988    2.2794 F         1 <0>        -0.1204
     32 F2         -7.4163   -0.3183   -1.2479 F         1 <0>        -0.1262
     33 H1          1.7075    2.0817   -0.3414 H         1 <0>         0.0836
     34 H2          0.1125    2.1341   -1.1297 H         1 <0>         0.0919
     35 H3          0.2322    2.2258    0.6439 H         1 <0>         0.0922
     36 H4         -2.7423   -2.4354    0.9980 H         1 <0>         0.0948
     37 H5         -2.9410   -2.3673   -0.7841 H         1 <0>         0.0962
     38 H6          0.5632   -2.3424   -1.5427 H         1 <0>         0.0876
     39 H7         -0.7999   -3.4845   -1.4670 H         1 <0>         0.0740
     40 H8         -2.2877   -1.8417   -2.5075 H         1 <0>         0.0576
     41 H9         -0.9995   -0.6136   -2.4804 H         1 <0>         0.0726
     42 H10         0.3832   -2.0312   -3.9728 H         1 <0>         0.0767
     43 H11        -0.9049   -3.2593   -3.9998 H         1 <0>         0.0458
     44 H12        -2.9069   -2.8693   -4.6024 H         1 <0>         0.0666
     45 H13        -3.4696   -1.2338   -5.0631 H         1 <0>         0.0863
     46 H14        -3.7116   -2.5276   -7.2089 H         1 <0>         0.1405
     47 H15        -1.4631   -1.5673   -8.3576 H         1 <0>         0.0892
     48 H16        -2.1594   -0.3354   -7.2318 H         1 <0>         0.0958
     49 H17         0.3056   -1.0886   -6.4058 H         1 <0>         0.1348
     50 H18         0.1325   -3.4557   -7.2811 H         1 <0>         0.0751
     51 H19        -0.2131   -3.6654   -5.5384 H         1 <0>         0.0771
     52 H20         0.9312   -3.7753   -0.2259 H         1 <0>         0.1261
     53 H21         2.0736   -4.9076    1.6385 H         1 <0>         0.1235
     54 H22         1.5401   -4.2957    3.9632 H         1 <0>         0.1222
     55 H23        -0.1353   -2.5509    4.4235 H         1 <0>         0.1215
     56 H24        -1.2717   -1.4127    2.5589 H         1 <0>         0.1124
     57 H25        -4.9191   -1.0645   -1.3678 H         1 <0>         0.1499
     58 H26        -7.7669    1.2611    0.7993 H         1 <0>         0.1541
     59 H27        -6.0127    1.9476    2.3824 H         1 <0>         0.1566
@<TRIPOS>BOND
     1    1    2 1
     2    1   33 1
     3    1   34 1
     4    1   35 1
     5    2    3 2
     6    2    4 1
     7    4    8 1
     8    4    5 2
     9    5    6 1
    10    6    7 1
    11    6   25 1
    12    7    8 1
    13    7   36 1
    14    7   37 1
    15    8    9 1
    16    8   19 1
    17    9   10 1
    18    9   38 1
    19    9   39 1
    20   10   11 1
    21   10   40 1
    22   10   41 1
    23   11   12 1
    24   11   42 1
    25   11   43 1
    26   12   16 1
    27   12   13 1
    28   13   14 1
    29   13   44 1
    30   13   45 1
    31   14   18 1
    32   14   15 1
    33   14   46 1
    34   15   16 1
    35   15   47 1
    36   15   48 1
    37   16   17 1
    38   16   49 1
    39   17   18 1
    40   17   50 1
    41   17   51 1
    42   19   24 ar
    43   19   20 ar
    44   20   21 ar
    45   20   52 1
    46   21   22 ar
    47   21   53 1
    48   22   23 ar
    49   22   54 1
    50   23   24 ar
    51   23   55 1
    52   24   56 1
    53   25   30 ar
    54   25   26 ar
    55   26   27 ar
    56   26   57 1
    57   27   28 ar
    58   27   32 1
    59   28   29 ar
    60   28   58 1
    61   29   30 ar
    62   29   59 1
    63   30   31 1
@<TRIPOS>MOLECULE
CHEMBL246603__7
   60    64     0     0     0
SMALL
USER_CHARGES

@<TRIPOS>ATOM
      1 C1          0.2959    1.7334   -0.0815 C.3       1 <0>        -0.1951
      2 C2          0.2930    0.2268   -0.0476 C.2       1 <0>         0.4318
      3 O1          1.3435   -0.3831   -0.0603 O.2       1 <0>        -0.4484
      4 C3         -0.9272   -0.4739   -0.0013 C.2       1 <0>        -0.0796
      5 N1         -2.1068    0.0572    0.1210 N.2       1 <0>        -0.1247
      6 N2         -3.0945   -0.7526    0.1422 N.pl3     1 <0>        -0.3914
      7 C4         -2.6255   -2.1420    0.0171 C.3       1 <0>         0.0638
      8 C5         -1.0929   -1.9789   -0.0923 C.3       1 <0>         0.0103
      9 C6         -0.5799   -2.5047   -1.4344 C.3       1 <0>        -0.1021
     10 C7         -1.2740   -1.7566   -2.5743 C.3       1 <0>        -0.1500
     11 C8         -0.6730   -2.1938   -3.9117 C.3       1 <0>        -0.0145
     12 N3         -1.3395   -1.4755   -5.0061 N.4       1 <0>        -0.3973
     13 C9         -2.7284   -1.9693   -5.1720 C.3       1 <0>        -0.0448
     14 C10        -2.8014   -2.4817   -6.6437 C.3       1 <0>         0.0743
     15 C11        -1.8116   -1.4712   -7.3264 C.3       1 <0>        -0.1729
     16 C12        -0.6512   -1.7595   -6.3059 C.3       1 <0>        -0.0044
     17 C13        -0.6385   -3.3184   -6.3862 C.3       1 <0>         0.0197
     18 O2         -2.0053   -3.6999   -6.6374 O.3       1 <0>        -0.3531
     19 C14        -0.3978   -2.6669    1.0542 C.ar      1 <0>        -0.0750
     20 C15         0.6040   -3.5859    0.8037 C.ar      1 <0>        -0.1022
     21 C16         1.2417   -4.2171    1.8553 C.ar      1 <0>        -0.1143
     22 C17         0.8779   -3.9289    3.1574 C.ar      1 <0>        -0.1099
     23 C18        -0.1233   -3.0092    3.4079 C.ar      1 <0>        -0.1125
     24 C19        -0.7580   -2.3749    2.3564 C.ar      1 <0>        -0.1100
     25 C20        -4.4323   -0.3727    0.2670 C.ar      1 <0>         0.1533
     26 C21        -5.3645   -0.7866   -0.6762 C.ar      1 <0>        -0.1356
     27 C22        -6.6887   -0.4084   -0.5494 C.ar      1 <0>         0.1120
     28 C23        -7.0859    0.3822    0.5165 C.ar      1 <0>        -0.1143
     29 C24        -6.1608    0.7959    1.4569 C.ar      1 <0>        -0.1039
     30 C25        -4.8361    0.4167    1.3396 C.ar      1 <0>         0.1025
     31 F1         -3.9339    0.8164    2.2623 F         1 <0>        -0.1178
     32 F2         -7.5959   -0.8101   -1.4664 F         1 <0>        -0.1246
     33 H1          1.3239    2.0941   -0.1153 H         1 <0>         0.0869
     34 H2         -0.2393    2.0780   -0.9663 H         1 <0>         0.0884
     35 H3         -0.1948    2.1179    0.8127 H         1 <0>         0.0962
     36 H4         -2.8932   -2.7207    0.9011 H         1 <0>         0.1015
     37 H5         -3.0263   -2.6050   -0.8846 H         1 <0>         0.0940
     38 H6          0.4967   -2.3470   -1.4988 H         1 <0>         0.0992
     39 H7         -0.7964   -3.5700   -1.5140 H         1 <0>         0.0886
     40 H8         -2.3397   -1.9850   -2.5629 H         1 <0>         0.0835
     41 H9         -1.1309   -0.6838   -2.4450 H         1 <0>         0.0888
     42 H10         0.3927   -1.9654   -3.9231 H         1 <0>         0.1363
     43 H11        -0.8161   -3.2666   -4.0410 H         1 <0>         0.1374
     44 H12        -2.9259   -2.7851   -4.4766 H         1 <0>         0.1424
     45 H13        -3.4398   -1.1581   -5.0176 H         1 <0>         0.1417
     46 H14        -3.7994   -2.5648   -7.0741 H         1 <0>         0.1796
     47 H15        -1.5534   -1.7645   -8.3439 H         1 <0>         0.1352
     48 H16        -2.1658   -0.4417   -7.2738 H         1 <0>         0.1167
     49 H17         0.2935   -1.2435   -6.4772 H         1 <0>         0.1877
     50 H18         0.0020   -3.6490   -7.2039 H         1 <0>         0.1193
     51 H19        -0.2957   -3.7422   -5.4423 H         1 <0>         0.1028
     52 H20         0.8883   -3.8111   -0.2136 H         1 <0>         0.1228
     53 H21         2.0239   -4.9356    1.6596 H         1 <0>         0.1263
     54 H22         1.3756   -4.4225    3.9790 H         1 <0>         0.1266
     55 H23        -0.4078   -2.7843    4.4252 H         1 <0>         0.1254
     56 H24        -1.5377   -1.6536    2.5522 H         1 <0>         0.1126
     57 H25        -5.0554   -1.4027   -1.5076 H         1 <0>         0.1450
     58 H26        -8.1206    0.6764    0.6129 H         1 <0>         0.1581
     59 H27        -6.4739    1.4122    2.2867 H         1 <0>         0.1607
     60 H28        -1.3410   -0.4834   -4.8222 H         1 <0>         0.4269
@<TRIPOS>BOND
     1    1    2 1
     2    1   33 1
     3    1   34 1
     4    1   35 1
     5    2    3 2
     6    2    4 1
     7    4    8 1
     8    4    5 2
     9    5    6 1
    10    6    7 1
    11    6   25 1
    12    7    8 1
    13    7   36 1
    14    7   37 1
    15    8    9 1
    16    8   19 1
    17    9   10 1
    18    9   38 1
    19    9   39 1
    20   10   11 1
    21   10   40 1
    22   10   41 1
    23   11   12 1
    24   11   42 1
    25   11   43 1
    26   12   16 1
    27   12   13 1
    28   12   60 1
    29   13   14 1
    30   13   44 1
    31   13   45 1
    32   14   18 1
    33   14   15 1
    34   14   46 1
    35   15   16 1
    36   15   47 1
    37   15   48 1
    38   16   17 1
    39   16   49 1
    40   17   18 1
    41   17   50 1
    42   17   51 1
    43   19   24 ar
    44   19   20 ar
    45   20   21 ar
    46   20   52 1
    47   21   22 ar
    48   21   53 1
    49   22   23 ar
    50   22   54 1
    51   23   24 ar
    52   23   55 1
    53   24   56 1
    54   25   30 ar
    55   25   26 ar
    56   26   27 ar
    57   26   57 1
    58   27   28 ar
    59   27   32 1
    60   28   29 ar
    61   28   58 1
    62   29   30 ar
    63   29   59 1
    64   30   31 1
@<TRIPOS>MOLECULE
CHEMBL1163678
   45    48     0     0     0
SMALL
USER_CHARGES

@<TRIPOS>ATOM
      1 C1          0.4112    1.4826    1.5089 C.ar      1 <0>        -0.1021
      2 C2          1.5650    2.1919    1.2299 C.ar      1 <0>        -0.1307
      3 C3          2.5585    1.6230    0.4550 C.ar      1 <0>        -0.0837
      4 C4          2.4006    0.3440   -0.0431 C.ar      1 <0>        -0.1193
      5 C5          1.2441   -0.3695    0.2353 C.ar      1 <0>         0.1172
      6 C6          0.2486    0.2035    1.0137 C.ar      1 <0>        -0.1341
      7 O1          1.0863   -1.6278   -0.2534 O.3       1 <0>        -0.4970
      8 C7          3.8147    2.3988    0.1529 C.3       1 <0>         0.1958
      9 C8          4.1888    3.2442    1.3473 C.2       1 <0>         0.0456
     10 C9          4.5952    4.5300    1.2421 C.2       1 <0>        -0.1705
     11 C10         4.8601    5.0055    2.5816 C.ar      1 <0>        -0.0908
     12 C11         5.2979    6.2344    3.0856 C.ar      1 <0>        -0.0605
     13 C12         5.4416    6.3318    4.4483 C.ar      1 <0>        -0.0536
     14 C13         5.1685    5.2689    5.2953 C.ar      1 <0>        -0.0884
     15 C14         4.7351    4.0422    4.8236 C.ar      1 <0>        -0.1102
     16 C15         4.5802    3.9143    3.4450 C.ar      1 <0>         0.1026
     17 N1          4.1787    2.8684    2.6629 N.pl3     1 <0>        -0.5673
     18 H1          3.9247    1.9916    2.9909 H         1 <0>         0.4205
     19 Cl1         5.9818    7.8336    5.1314 Cl        1 <0>        -0.0678
     20 C16         4.7226    5.2567   -0.0731 C.3       1 <0>        -0.0803
     21 C17         4.7085    4.2110   -1.1964 C.3       1 <0>         0.0379
     22 N2          3.5815    3.2903   -0.9947 N.3       1 <0>        -0.4988
     23 C18         2.3208    4.0285   -0.8403 C.3       1 <0>         0.0049
     24 C19         2.0869    4.9020   -2.0744 C.3       1 <0>        -0.0129
     25 N3          0.8262    5.6402   -1.9200 N.4       1 <0>        -0.6353
     26 H2         -0.3616    1.9275    2.1183 H         1 <0>         0.1306
     27 H3          1.6901    3.1921    1.6178 H         1 <0>         0.1219
     28 H4          3.1767   -0.0997   -0.6490 H         1 <0>         0.1363
     29 H5         -0.6526   -0.3501    1.2321 H         1 <0>         0.1346
     30 H6          1.4192   -2.3217    0.3320 H         1 <0>         0.3998
     31 H7          4.6252    1.7077   -0.0788 H         1 <0>         0.1214
     32 H8          5.5133    7.0681    2.4336 H         1 <0>         0.1395
     33 H9          5.2987    5.4026    6.3591 H         1 <0>         0.1377
     34 H10         4.5265    3.2213    5.4937 H         1 <0>         0.1407
     35 H11         3.8846    5.9425   -0.1977 H         1 <0>         0.0655
     36 H12         5.6604    5.8116   -0.0980 H         1 <0>         0.0901
     37 H13         4.6007    4.7123   -2.1582 H         1 <0>         0.0926
     38 H14         5.6427    3.6496   -1.1820 H         1 <0>         0.0966
     39 H15         1.4972    3.3225   -0.7334 H         1 <0>         0.1061
     40 H16         2.3757    4.6597    0.0466 H         1 <0>         0.0709
     41 H17         2.9105    5.6080   -2.1813 H         1 <0>         0.1359
     42 H18         2.0320    4.2708   -2.9613 H         1 <0>         0.1454
     43 H19         0.0638    4.9867   -1.8211 H         1 <0>         0.4364
     44 H20         0.8770    6.2245   -1.0990 H         1 <0>         0.4347
     45 H21         0.6719    6.2163   -2.7339 H         1 <0>         0.4421
@<TRIPOS>BOND
     1    1    6 ar
     2    1    2 ar
     3    1   26 1
     4    2    3 ar
     5    2   27 1
     6    3    4 ar
     7    3    8 1
     8    4    5 ar
     9    4   28 1
    10    5    6 ar
    11    5    7 1
    12    6   29 1
    13    7   30 1
    14    8   22 1
    15    8    9 1
    16    8   31 1
    17    9   17 1
    18    9   10 2
    19   10   11 1
    20   10   20 1
    21   11   16 ar
    22   11   12 ar
    23   12   13 ar
    24   12   32 1
    25   13   14 ar
    26   13   19 1
    27   14   15 ar
    28   14   33 1
    29   15   16 ar
    30   15   34 1
    31   16   17 1
    32   17   18 1
    33   20   21 1
    34   20   35 1
    35   20   36 1
    36   21   22 1
    37   21   37 1
    38   21   38 1
    39   22   23 1
    40   23   24 1
    41   23   39 1
    42   23   40 1
    43   24   25 1
    44   24   41 1
    45   24   42 1
    46   25   43 1
    47   25   44 1
    48   25   45 1
@<TRIPOS>MOLECULE
CHEMBL1163678__1
   45    48     0     0     0
SMALL
USER_CHARGES

@<TRIPOS>ATOM
      1 C1         -0.0167    1.3770    0.0096 C.ar      1 <0>        -0.1038
      2 C2          1.1707    2.0858    0.0021 C.ar      1 <0>        -0.0972
      3 C3          2.3791    1.4145   -0.0130 C.ar      1 <0>        -0.0876
      4 C4          2.4032    0.0331   -0.0211 C.ar      1 <0>        -0.1449
      5 C5          1.2136   -0.6802   -0.0135 C.ar      1 <0>         0.1124
      6 C6          0.0021   -0.0041    0.0020 C.ar      1 <0>        -0.1352
      7 O1          1.2347   -2.0390   -0.0215 O.3       1 <0>        -0.4954
      8 C7          3.6712    2.1901   -0.0212 C.3       1 <0>         0.2049
      9 C8          3.9531    2.6920   -1.4176 C.2       1 <0>         0.0689
     10 C9          4.3908    3.9454   -1.6761 C.2       1 <0>        -0.1466
     11 C10         4.5435    4.0578   -3.1094 C.ar      1 <0>        -0.0933
     12 C11         4.9569    5.1018   -3.9431 C.ar      1 <0>        -0.0560
     13 C12         4.9800    4.8476   -5.2929 C.ar      1 <0>        -0.0561
     14 C13         4.6128    3.6178   -5.8169 C.ar      1 <0>        -0.0878
     15 C14         4.2005    2.5677   -5.0152 C.ar      1 <0>        -0.1128
     16 C15         4.1676    2.7968   -3.6414 C.ar      1 <0>         0.1064
     17 N1          3.8185    1.9982   -2.5892 N.pl3     1 <0>        -0.5709
     18 H1          3.5202    1.0781   -2.6618 H         1 <0>         0.4182
     19 Cl1         5.4844    6.1063   -6.3768 Cl        1 <0>        -0.0702
     20 C16         4.6484    4.9738   -0.6036 C.3       1 <0>        -0.0421
     21 C17         4.7155    4.2456    0.7459 C.3       1 <0>         0.0469
     22 N2          3.5573    3.3504    0.8772 N.3       1 <0>        -0.5178
     23 C18         3.3788    2.9216    2.2708 C.3       1 <0>         0.0218
     24 C19         3.0168    4.1316    3.1344 C.3       1 <0>        -0.0107
     25 N3          2.8383    3.7029    4.5280 N.4       1 <0>        -0.6353
     26 H2         -0.9594    1.9037    0.0259 H         1 <0>         0.1316
     27 H3          1.1540    3.1657    0.0076 H         1 <0>         0.1352
     28 H4          3.3475   -0.4909   -0.0336 H         1 <0>         0.1288
     29 H5         -0.9255   -0.5572    0.0082 H         1 <0>         0.1334
     30 H6          1.2494   -2.4373    0.8596 H         1 <0>         0.3949
     31 H7          4.4862    1.5476    0.3119 H         1 <0>         0.0747
     32 H8          5.2444    6.0634   -3.5442 H         1 <0>         0.1410
     33 H9          4.6494    3.4744   -6.8867 H         1 <0>         0.1368
     34 H10         3.9168    1.6141   -5.4355 H         1 <0>         0.1397
     35 H11         5.5947    5.4788   -0.7971 H         1 <0>         0.0854
     36 H12         3.8376    5.7021   -0.5892 H         1 <0>         0.0843
     37 H13         5.6342    3.6614    0.7982 H         1 <0>         0.0525
     38 H14         4.7032    4.9767    1.5542 H         1 <0>         0.0846
     39 H15         2.5777    2.1844    2.3244 H         1 <0>         0.1025
     40 H16         4.3052    2.4786    2.6362 H         1 <0>         0.0619
     41 H17         3.8179    4.8689    3.0808 H         1 <0>         0.1368
     42 H18         2.0904    4.5747    2.7690 H         1 <0>         0.1459
     43 H19         2.0967    3.0204    4.5775 H         1 <0>         0.4363
     44 H20         3.6959    3.2927    4.8662 H         1 <0>         0.4351
     45 H21         2.5996    4.5009    5.0975 H         1 <0>         0.4427
@<TRIPOS>BOND
     1    1    6 ar
     2    1    2 ar
     3    1   26 1
     4    2    3 ar
     5    2   27 1
     6    3    4 ar
     7    3    8 1
     8    4    5 ar
     9    4   28 1
    10    5    6 ar
    11    5    7 1
    12    6   29 1
    13    7   30 1
    14    8   22 1
    15    8    9 1
    16    8   31 1
    17    9   17 1
    18    9   10 2
    19   10   11 1
    20   10   20 1
    21   11   16 ar
    22   11   12 ar
    23   12   13 ar
    24   12   32 1
    25   13   14 ar
    26   13   19 1
    27   14   15 ar
    28   14   33 1
    29   15   16 ar
    30   15   34 1
    31   16   17 1
    32   17   18 1
    33   20   21 1
    34   20   35 1
    35   20   36 1
    36   21   22 1
    37   21   37 1
    38   21   38 1
    39   22   23 1
    40   23   24 1
    41   23   39 1
    42   23   40 1
    43   24   25 1
    44   24   41 1
    45   24   42 1
    46   25   43 1
    47   25   44 1
    48   25   45 1
@<TRIPOS>MOLECULE
CHEMBL241754
   48    50     0     0     0
SMALL
USER_CHARGES

@<TRIPOS>ATOM
      1 C1         -0.5519    1.6219    0.4389 C.3       1 <0>        -0.1657
      2 C2         -0.3184    0.1391    0.3054 C.2       1 <0>         0.5514
      3 O1          0.8108   -0.3028    0.3419 O.2       1 <0>        -0.5084
      4 N1         -1.3641   -0.6960    0.1454 N.am      1 <0>        -0.4648
      5 C3         -1.2733   -2.1451   -0.0942 C.3       1 <0>         0.1865
      6 C4         -2.7465   -2.5874   -0.1973 C.3       1 <0>        -0.1246
      7 C5         -3.5259   -1.3069    0.0005 C.2       1 <0>         0.1333
      8 N2         -2.7077   -0.3293    0.1858 N.2       1 <0>        -0.2121
      9 C6         -4.9960   -1.1955   -0.0107 C.ar      1 <0>        -0.0488
     10 C7         -5.7844   -2.3312   -0.2101 C.ar      1 <0>        -0.1005
     11 C8         -7.1610   -2.2193   -0.2189 C.ar      1 <0>         0.0950
     12 C9         -7.7605   -0.9838   -0.0304 C.ar      1 <0>        -0.1006
     13 C10        -6.9865    0.1447    0.1676 C.ar      1 <0>        -0.1240
     14 C11        -5.6080    0.0471    0.1842 C.ar      1 <0>         0.1279
     15 F1         -4.8534    1.1499    0.3829 F         1 <0>        -0.1127
     16 F2         -7.9250   -3.3167   -0.4121 F         1 <0>        -0.1258
     17 C12        -0.5825   -2.8427    1.0793 C.3       1 <0>        -0.1199
     18 C13        -1.2998   -2.4809    2.3815 C.3       1 <0>        -0.1566
     19 C14        -0.5290   -3.0645    3.5673 C.3       1 <0>        -0.0067
     20 N3         -1.2176   -2.7171    4.8176 N.4       1 <0>        -0.6378
     21 C15        -0.5442   -2.4249   -1.3830 C.ar      1 <0>        -0.0962
     22 C16         0.1726   -3.5976   -1.5311 C.ar      1 <0>        -0.1065
     23 C17         0.8414   -3.8542   -2.7133 C.ar      1 <0>        -0.1138
     24 C18         0.7931   -2.9384   -3.7477 C.ar      1 <0>        -0.1066
     25 C19         0.0756   -1.7662   -3.6000 C.ar      1 <0>        -0.1115
     26 C20        -0.5968   -1.5115   -2.4193 C.ar      1 <0>        -0.1015
     27 H1          0.4044    2.1309    0.5593 H         1 <0>         0.0960
     28 H2         -1.0509    1.9932   -0.4563 H         1 <0>         0.0963
     29 H3         -1.1781    1.8142    1.3101 H         1 <0>         0.0935
     30 H4         -2.9505   -3.0112   -1.1805 H         1 <0>         0.1146
     31 H5         -2.9858   -3.3056    0.5869 H         1 <0>         0.1090
     32 H6         -5.3186   -3.2944   -0.3575 H         1 <0>         0.1513
     33 H7         -8.8374   -0.9023   -0.0386 H         1 <0>         0.1551
     34 H8         -7.4604    1.1042    0.3135 H         1 <0>         0.1564
     35 H9         -0.6185   -3.9221    0.9325 H         1 <0>         0.0952
     36 H10         0.4565   -2.5179    1.1344 H         1 <0>         0.1015
     37 H11        -1.3504   -1.3965    2.4792 H         1 <0>         0.0873
     38 H12        -2.3092   -2.8919    2.3666 H         1 <0>         0.0899
     39 H13        -0.4784   -4.1489    3.4696 H         1 <0>         0.1374
     40 H14         0.4805   -2.6535    3.5822 H         1 <0>         0.1363
     41 H15        -1.2645   -1.7133    4.9081 H         1 <0>         0.4356
     42 H16        -2.1520   -3.0976    4.8038 H         1 <0>         0.4349
     43 H17         0.2104   -4.3131   -0.7230 H         1 <0>         0.1229
     44 H18         1.4020   -4.7701   -2.8287 H         1 <0>         0.1284
     45 H19         1.3162   -3.1387   -4.6711 H         1 <0>         0.1284
     46 H20         0.0381   -1.0505   -4.4079 H         1 <0>         0.1268
     47 H21        -1.1605   -0.5973   -2.3052 H         1 <0>         0.1141
     48 H22        -0.7093   -3.1020    5.5996 H         1 <0>         0.4400
@<TRIPOS>BOND
     1    1    2 1
     2    1   27 1
     3    1   28 1
     4    1   29 1
     5    2    3 2
     6    2    4 am
     7    4    8 1
     8    4    5 1
     9    5    6 1
    10    5   17 1
    11    5   21 1
    12    6    7 1
    13    6   30 1
    14    6   31 1
    15    7    8 2
    16    7    9 1
    17    9   14 ar
    18    9   10 ar
    19   10   11 ar
    20   10   32 1
    21   11   12 ar
    22   11   16 1
    23   12   13 ar
    24   12   33 1
    25   13   14 ar
    26   13   34 1
    27   14   15 1
    28   17   18 1
    29   17   35 1
    30   17   36 1
    31   18   19 1
    32   18   37 1
    33   18   38 1
    34   19   20 1
    35   19   39 1
    36   19   40 1
    37   20   41 1
    38   20   42 1
    39   20   48 1
    40   21   26 ar
    41   21   22 ar
    42   22   23 ar
    43   22   43 1
    44   23   24 ar
    45   23   44 1
    46   24   25 ar
    47   24   45 1
    48   25   26 ar
    49   25   46 1
    50   26   47 1
@<TRIPOS>MOLECULE
CHEMBL392148
   54    56     0     0     0
SMALL
USER_CHARGES

@<TRIPOS>ATOM
      1 C1         -0.4484    1.6286   -0.5209 C.3       1 <0>        -0.1699
      2 C2         -0.3026    0.1428   -0.3156 C.2       1 <0>         0.5520
      3 O1         -0.3351   -0.3208    0.8049 O.2       1 <0>        -0.5090
      4 N1         -0.1360   -0.6709   -1.3770 N.am      1 <0>        -0.4637
      5 C3          0.1153   -2.1195   -1.3139 C.3       1 <0>         0.1866
      6 C4          0.2217   -2.5328   -2.7952 C.3       1 <0>        -0.1242
      7 C5          0.0134   -1.2394   -3.5501 C.2       1 <0>         0.1322
      8 N2         -0.1796   -0.2791   -2.7135 N.2       1 <0>        -0.2118
      9 C6          0.0235   -1.0998   -5.0179 C.ar      1 <0>        -0.0481
     10 C7          0.2320   -2.2187   -5.8277 C.ar      1 <0>        -0.1009
     11 C8          0.2397   -2.0806   -7.2019 C.ar      1 <0>         0.0950
     12 C9          0.0411   -0.8354   -7.7778 C.ar      1 <0>        -0.1009
     13 C10        -0.1660    0.2765   -6.9825 C.ar      1 <0>        -0.1239
     14 C11        -0.1815    0.1525   -5.6061 C.ar      1 <0>         0.1279
     15 F1         -0.3890    1.2391   -4.8306 F         1 <0>        -0.1128
     16 F2          0.4417   -3.1615   -7.9867 F         1 <0>        -0.1259
     17 C12        -1.0524   -2.8396   -0.6366 C.3       1 <0>        -0.1187
     18 C13        -2.3576   -2.4747   -1.3467 C.3       1 <0>        -0.1529
     19 C14        -3.5385   -3.0824   -0.5872 C.3       1 <0>        -0.0084
     20 N3         -4.7917   -2.7321   -1.2690 N.4       1 <0>        -0.3881
     21 C15        -4.8189   -3.3602   -2.5967 C.3       1 <0>        -0.0527
     22 C16        -5.9313   -3.2128   -0.4764 C.3       1 <0>        -0.0473
     23 C17         1.4065   -2.4027   -0.5903 C.ar      1 <0>        -0.0954
     24 C18         1.5641   -3.5876    0.1040 C.ar      1 <0>        -0.1063
     25 C19         2.7485   -3.8474    0.7679 C.ar      1 <0>        -0.1139
     26 C20         3.7754   -2.9225    0.7370 C.ar      1 <0>        -0.1068
     27 C21         3.6181   -1.7380    0.0419 C.ar      1 <0>        -0.1116
     28 C22         2.4353   -1.4801   -0.6255 C.ar      1 <0>        -0.1016
     29 H1          0.5353    2.0973   -0.4951 H         1 <0>         0.1008
     30 H2         -0.9158    1.8178   -1.4872 H         1 <0>         0.0932
     31 H3         -1.0703    2.0455    0.2713 H         1 <0>         0.0959
     32 H4          1.2083   -2.9447   -3.0074 H         1 <0>         0.1145
     33 H5         -0.5567   -3.2527   -3.0482 H         1 <0>         0.1084
     34 H6          0.3872   -3.1893   -5.3804 H         1 <0>         0.1512
     35 H7          0.0484   -0.7333   -8.8530 H         1 <0>         0.1550
     36 H8         -0.3197    1.2436   -7.4380 H         1 <0>         0.1563
     37 H9         -0.8969   -3.9170   -0.6931 H         1 <0>         0.0943
     38 H10        -1.1100   -2.5351    0.4085 H         1 <0>         0.1009
     39 H11        -2.4641   -1.3904   -1.3766 H         1 <0>         0.0864
     40 H12        -2.3395   -2.8663   -2.3638 H         1 <0>         0.0887
     41 H13        -3.4320   -4.1668   -0.5572 H         1 <0>         0.1327
     42 H14        -3.5566   -2.6909    0.4299 H         1 <0>         0.1328
     43 H15        -5.7487   -3.1003   -3.1026 H         1 <0>         0.1257
     44 H16        -3.9733   -3.0036   -3.1847 H         1 <0>         0.1219
     45 H17        -4.7549   -4.4429   -2.4878 H         1 <0>         0.1238
     46 H18        -5.9111   -2.7468    0.5087 H         1 <0>         0.1237
     47 H19        -6.8611   -2.9529   -0.9823 H         1 <0>         0.1253
     48 H20        -5.8673   -4.2955   -0.3675 H         1 <0>         0.1228
     49 H21         0.7618   -4.3102    0.1282 H         1 <0>         0.1229
     50 H22         2.8714   -4.7728    1.3109 H         1 <0>         0.1283
     51 H23         4.7005   -3.1252    1.2562 H         1 <0>         0.1282
     52 H24         4.4203   -1.0153    0.0180 H         1 <0>         0.1266
     53 H25         2.3138   -0.5563   -1.1716 H         1 <0>         0.1142
     54 H26        -4.8510   -1.7299   -1.3698 H         1 <0>         0.4267
@<TRIPOS>BOND
     1    1    2 1
     2    1   29 1
     3    1   30 1
     4    1   31 1
     5    2    3 2
     6    2    4 am
     7    4    8 1
     8    4    5 1
     9    5    6 1
    10    5   17 1
    11    5   23 1
    12    6    7 1
    13    6   32 1
    14    6   33 1
    15    7    8 2
    16    7    9 1
    17    9   14 ar
    18    9   10 ar
    19   10   11 ar
    20   10   34 1
    21   11   12 ar
    22   11   16 1
    23   12   13 ar
    24   12   35 1
    25   13   14 ar
    26   13   36 1
    27   14   15 1
    28   17   18 1
    29   17   37 1
    30   17   38 1
    31   18   19 1
    32   18   39 1
    33   18   40 1
    34   19   20 1
    35   19   41 1
    36   19   42 1
    37   20   21 1
    38   20   22 1
    39   20   54 1
    40   21   43 1
    41   21   44 1
    42   21   45 1
    43   22   46 1
    44   22   47 1
    45   22   48 1
    46   23   28 ar
    47   23   24 ar
    48   24   25 ar
    49   24   49 1
    50   25   26 ar
    51   25   50 1
    52   26   27 ar
    53   26   51 1
    54   27   28 ar
    55   27   52 1
    56   28   53 1
@<TRIPOS>MOLECULE
CHEMBL400041
   57    60     0     0     0
SMALL
USER_CHARGES

@<TRIPOS>ATOM
      1 C1         -0.5519    1.6219    0.4389 C.3       1 <0>        -0.1633
      2 C2         -0.3184    0.1391    0.3054 C.2       1 <0>         0.5520
      3 O1          0.8108   -0.3028    0.3419 O.2       1 <0>        -0.5105
      4 N1         -1.3641   -0.6960    0.1454 N.am      1 <0>        -0.4584
      5 C3         -1.2733   -2.1451   -0.0942 C.3       1 <0>         0.1846
      6 C4         -2.7465   -2.5874   -0.1973 C.3       1 <0>        -0.1219
      7 C5         -3.5259   -1.3069    0.0005 C.2       1 <0>         0.1292
      8 N2         -2.7077   -0.3293    0.1858 N.2       1 <0>        -0.2095
      9 C6         -4.9960   -1.1955   -0.0107 C.ar      1 <0>        -0.0370
     10 C7         -5.7844   -2.3312   -0.2101 C.ar      1 <0>        -0.0984
     11 C8         -7.1610   -2.2193   -0.2189 C.ar      1 <0>         0.0925
     12 C9         -7.7605   -0.9838   -0.0304 C.ar      1 <0>        -0.1065
     13 C10        -6.9865    0.1447    0.1676 C.ar      1 <0>        -0.1262
     14 C11        -5.6080    0.0471    0.1842 C.ar      1 <0>         0.1270
     15 F1         -4.8534    1.1499    0.3829 F         1 <0>        -0.1130
     16 F2         -7.9250   -3.3167   -0.4121 F         1 <0>        -0.1291
     17 C12        -0.5825   -2.8427    1.0793 C.3       1 <0>        -0.1216
     18 C13        -1.2998   -2.4809    2.3815 C.3       1 <0>        -0.1115
     19 C14        -0.5290   -3.0645    3.5673 C.3       1 <0>         0.0464
     20 N3         -1.2176   -2.7171    4.8176 N.3       1 <0>        -0.5027
     21 C15        -1.0051   -1.2880    5.1631 C.3       1 <0>         0.0326
     22 C16        -1.2894   -1.2077    6.6784 C.3       1 <0>        -0.1642
     23 C17        -1.0497   -2.6368    7.2074 C.3       1 <0>         0.2831
     24 C18        -0.6407   -3.4603    5.9673 C.3       1 <0>        -0.0035
     25 F3         -2.2243   -3.1513    7.7667 F         1 <0>        -0.1877
     26 F4         -0.0188   -2.6383    8.1532 F         1 <0>        -0.1943
     27 C19        -0.5442   -2.4249   -1.3830 C.ar      1 <0>        -0.0844
     28 C20         0.1726   -3.5976   -1.5311 C.ar      1 <0>        -0.1039
     29 C21         0.8414   -3.8542   -2.7133 C.ar      1 <0>        -0.1160
     30 C22         0.7931   -2.9384   -3.7477 C.ar      1 <0>        -0.1140
     31 C23         0.0756   -1.7662   -3.6000 C.ar      1 <0>        -0.1157
     32 C24        -0.5968   -1.5115   -2.4193 C.ar      1 <0>        -0.1032
     33 H1          0.4044    2.1309    0.5593 H         1 <0>         0.0924
     34 H2         -1.0509    1.9932   -0.4563 H         1 <0>         0.0923
     35 H3         -1.1781    1.8142    1.3101 H         1 <0>         0.0939
     36 H4         -2.9505   -3.0112   -1.1805 H         1 <0>         0.1082
     37 H5         -2.9858   -3.3056    0.5869 H         1 <0>         0.1135
     38 H6         -5.3186   -3.2944   -0.3575 H         1 <0>         0.1519
     39 H7         -8.8374   -0.9023   -0.0386 H         1 <0>         0.1515
     40 H8         -7.4604    1.1042    0.3135 H         1 <0>         0.1534
     41 H9         -0.6185   -3.9221    0.9325 H         1 <0>         0.0834
     42 H10         0.4565   -2.5179    1.1344 H         1 <0>         0.0890
     43 H11        -1.3504   -1.3965    2.4792 H         1 <0>         0.0637
     44 H12        -2.3092   -2.8919    2.3666 H         1 <0>         0.0736
     45 H13        -0.4784   -4.1489    3.4696 H         1 <0>         0.0813
     46 H14         0.4805   -2.6535    3.5822 H         1 <0>         0.0447
     47 H15         0.0236   -0.9950    4.9533 H         1 <0>         0.0568
     48 H16        -1.7013   -0.6560    4.6118 H         1 <0>         0.0951
     49 H17        -0.6039   -0.5074    7.1556 H         1 <0>         0.1010
     50 H18        -2.3222   -0.9072    6.8544 H         1 <0>         0.1042
     51 H19        -1.0625   -4.4639    6.0214 H         1 <0>         0.1101
     52 H20         0.4450   -3.5073    5.8833 H         1 <0>         0.0773
     53 H21         0.2104   -4.3131   -0.7230 H         1 <0>         0.1259
     54 H22         1.4020   -4.7701   -2.8287 H         1 <0>         0.1256
     55 H23         1.3162   -3.1387   -4.6711 H         1 <0>         0.1239
     56 H24         0.0381   -1.0505   -4.4079 H         1 <0>         0.1229
     57 H25        -1.1605   -0.5973   -2.3052 H         1 <0>         0.1138
@<TRIPOS>BOND
     1    1    2 1
     2    1   33 1
     3    1   34 1
     4    1   35 1
     5    2    3 2
     6    2    4 am
     7    4    8 1
     8    4    5 1
     9    5    6 1
    10    5   17 1
    11    5   27 1
    12    6    7 1
    13    6   36 1
    14    6   37 1
    15    7    8 2
    16    7    9 1
    17    9   14 ar
    18    9   10 ar
    19   10   11 ar
    20   10   38 1
    21   11   12 ar
    22   11   16 1
    23   12   13 ar
    24   12   39 1
    25   13   14 ar
    26   13   40 1
    27   14   15 1
    28   17   18 1
    29   17   41 1
    30   17   42 1
    31   18   19 1
    32   18   43 1
    33   18   44 1
    34   19   20 1
    35   19   45 1
    36   19   46 1
    37   20   24 1
    38   20   21 1
    39   21   22 1
    40   21   47 1
    41   21   48 1
    42   22   23 1
    43   22   49 1
    44   22   50 1
    45   23   24 1
    46   23   25 1
    47   23   26 1
    48   24   51 1
    49   24   52 1
    50   27   32 ar
    51   27   28 ar
    52   28   29 ar
    53   28   53 1
    54   29   30 ar
    55   29   54 1
    56   30   31 ar
    57   30   55 1
    58   31   32 ar
    59   31   56 1
    60   32   57 1
@<TRIPOS>MOLECULE
CHEMBL1093087
   66    70     0     0     0
SMALL
USER_CHARGES

@<TRIPOS>ATOM
      1 C1         -0.0167    1.3781    0.0096 C.ar      1 <0>        -0.1105
      2 C2          1.1709    2.0855    0.0021 C.ar      1 <0>        -0.1155
      3 C3          2.3773    1.4107   -0.0130 C.ar      1 <0>        -0.1062
      4 C4          2.3960    0.0285   -0.0201 C.ar      1 <0>        -0.1017
      5 C5          1.2084   -0.6789   -0.0117 C.ar      1 <0>        -0.1094
      6 C6          0.0021   -0.0041    0.0020 C.ar      1 <0>        -0.1135
      7 C7          3.7112   -0.7071   -0.0376 C.3       1 <0>         0.2092
      8 H1          4.5003   -0.0447   -0.3933 H         1 <0>         0.0834
      9 C8          4.0466   -1.2045    1.3714 C.3       1 <0>        -0.1255
     10 H2          3.2933   -1.9268    1.6859 H         1 <0>         0.0909
     11 C9          4.0633   -0.0357    2.3531 C.3       1 <0>        -0.1162
     12 C10         5.2154    0.9108    2.0031 C.3       1 <0>        -0.1515
     13 C11         6.5261    0.1180    2.0146 C.3       1 <0>         0.0676
     14 H3          6.6962   -0.2905    3.0107 H         1 <0>         0.0678
     15 O1          6.4355   -0.9491    1.0702 O.3       1 <0>        -0.3646
     16 C12         5.4151   -1.8820    1.3503 C.3       1 <0>         0.1565
     17 H4          5.6035   -2.3500    2.3165 H         1 <0>         0.0709
     18 C13         5.4513   -2.9324    0.2682 C.ar      1 <0>        -0.1628
     19 C14         6.3833   -3.9524    0.3557 C.ar      1 <0>        -0.0038
     20 C15         6.4434   -4.9262   -0.6223 C.ar      1 <0>        -0.2447
     21 C16         5.5718   -4.8870   -1.6955 C.ar      1 <0>        -0.0155
     22 C17         4.6388   -3.8744   -1.7889 C.ar      1 <0>        -0.1949
     23 C18         4.5747   -2.8934   -0.8045 C.ar      1 <0>         0.2676
     24 N1          3.6134   -1.8822   -0.9154 N.pl3     1 <0>        -0.7341
     25 C19         7.4609   -6.0331   -0.5199 C.3       1 <0>         0.5126
     26 F1          6.9115   -7.1077    0.1876 F         1 <0>        -0.1759
     27 F2          7.8212   -6.4556   -1.8040 F         1 <0>        -0.1794
     28 F3          8.5948   -5.5635    0.1517 F         1 <0>        -0.1840
     29 C20         7.6857    1.0414    1.6356 C.3       1 <0>         0.1323
     30 N2          8.9384    0.2820    1.6470 N.pl3     1 <0>        -0.6133
     31 C21         9.3983   -0.3907    0.4295 C.3       1 <0>         0.1030
     32 C22        10.2819    0.5629   -0.3773 C.3       1 <0>        -0.0388
     33 N3         10.7430   -0.1116   -1.5981 N.4       1 <0>        -0.6341
     34 C23         9.6943    0.1993    2.8185 C.ar      1 <0>         0.1976
     35 C24         9.2568    0.8317    3.9754 C.ar      1 <0>        -0.1852
     36 C25        10.0064    0.7476    5.1322 C.ar      1 <0>        -0.0684
     37 C26        11.1916    0.0351    5.1397 C.ar      1 <0>        -0.1613
     38 C27        11.6301   -0.5957    3.9898 C.ar      1 <0>        -0.0722
     39 C28        10.8824   -0.5203    2.8311 C.ar      1 <0>        -0.1970
     40 H5         -0.9591    1.9053    0.0259 H         1 <0>         0.1265
     41 H6          1.1563    3.1654    0.0076 H         1 <0>         0.1263
     42 H7          3.3051    1.9634   -0.0196 H         1 <0>         0.1207
     43 H8          1.2231   -1.7588   -0.0176 H         1 <0>         0.1221
     44 H9         -0.9258   -0.5567    0.0082 H         1 <0>         0.1264
     45 H10         3.1184    0.5040    2.2911 H         1 <0>         0.0814
     46 H11         4.1993   -0.4143    3.3661 H         1 <0>         0.0718
     47 H12         5.0527    1.3334    1.0116 H         1 <0>         0.0743
     48 H13         5.2667    1.7121    2.7401 H         1 <0>         0.0807
     49 H14         7.0662   -3.9867    1.1916 H         1 <0>         0.1320
     50 H15         5.6216   -5.6482   -2.4601 H         1 <0>         0.1376
     51 H16         3.9585   -3.8430   -2.6272 H         1 <0>         0.1357
     52 H17         2.8928   -1.9561   -1.5606 H         1 <0>         0.4090
     53 H18         7.5159    1.4473    0.6383 H         1 <0>         0.0824
     54 H19         7.7495    1.8583    2.3543 H         1 <0>         0.0994
     55 H20         9.9722   -1.2774    0.6990 H         1 <0>         0.0956
     56 H21         8.5372   -0.6838   -0.1710 H         1 <0>         0.1071
     57 H22         9.7081    1.4496   -0.6468 H         1 <0>         0.1329
     58 H23        11.1430    0.8560    0.2232 H         1 <0>         0.1343
     59 H24        11.2742   -0.9324   -1.3487 H         1 <0>         0.4362
     60 H25         9.9459   -0.3830   -2.1540 H         1 <0>         0.4362
     61 H26         8.3317    1.3889    3.9700 H         1 <0>         0.1234
     62 H27         9.6668    1.2390    6.0319 H         1 <0>         0.1266
     63 H28        11.7763   -0.0286    6.0455 H         1 <0>         0.1241
     64 H29        12.5561   -1.1513    3.9991 H         1 <0>         0.1243
     65 H30        11.2232   -1.0170    1.9346 H         1 <0>         0.1142
     66 H31        11.3257    0.5172   -2.1302 H         1 <0>         0.4396
@<TRIPOS>BOND
     1    1    6 ar
     2    1    2 ar
     3    1   40 1
     4    2    3 ar
     5    2   41 1
     6    3    4 ar
     7    3   42 1
     8    4    5 ar
     9    4    7 1
    10    5    6 ar
    11    5   43 1
    12    6   44 1
    13    7    8 1
    14    7   24 1
    15    7    9 1
    16    9   10 1
    17    9   16 1
    18    9   11 1
    19   11   12 1
    20   11   45 1
    21   11   46 1
    22   12   13 1
    23   12   47 1
    24   12   48 1
    25   13   14 1
    26   13   15 1
    27   13   29 1
    28   15   16 1
    29   16   17 1
    30   16   18 1
    31   18   23 ar
    32   18   19 ar
    33   19   20 ar
    34   19   49 1
    35   20   21 ar
    36   20   25 1
    37   21   22 ar
    38   21   50 1
    39   22   23 ar
    40   22   51 1
    41   23   24 1
    42   24   52 1
    43   25   26 1
    44   25   27 1
    45   25   28 1
    46   29   30 1
    47   29   53 1
    48   29   54 1
    49   30   31 1
    50   30   34 1
    51   31   32 1
    52   31   55 1
    53   31   56 1
    54   32   33 1
    55   32   57 1
    56   32   58 1
    57   33   59 1
    58   33   60 1
    59   33   66 1
    60   34   39 ar
    61   34   35 ar
    62   35   36 ar
    63   35   61 1
    64   36   37 ar
    65   36   62 1
    66   37   38 ar
    67   37   63 1
    68   38   39 ar
    69   38   64 1
    70   39   65 1
@<TRIPOS>MOLECULE
CHEMBL470767
   30    31     0     0     0
SMALL
USER_CHARGES

@<TRIPOS>ATOM
      1 C1         -0.0168    1.3892    0.0097 C.ar      1 <0>        -0.1514
      2 C2          1.1701    2.0941    0.0021 C.ar      1 <0>        -0.0325
      3 C3          2.3776    1.4208   -0.0135 C.ar      1 <0>        -0.2594
      4 C4          2.4036    0.0354   -0.0216 C.ar      1 <0>         0.1608
      5 C5          1.2207   -0.6796   -0.0142 C.ar      1 <0>        -0.1772
      6 C6          0.0021   -0.0041    0.0020 C.ar      1 <0>         0.0845
      7 C7         -1.2711   -0.7657    0.0106 C.ar      1 <0>        -0.2501
      8 C8         -1.2604   -2.1654    0.0088 C.ar      1 <0>        -0.0229
      9 C9         -2.4698   -2.8313    0.0175 C.ar      1 <0>        -0.2153
     10 C10        -3.6513   -2.0946    0.0276 C.ar      1 <0>         0.4646
     11 N1         -3.6261   -0.7705    0.0290 N.ar      1 <0>        -0.5961
     12 C11        -2.4921   -0.0984    0.0263 C.ar      1 <0>         0.1943
     13 N2         -4.8723   -2.7572    0.0360 N.2       1 <0>        -1.0813
     14 S1         -6.2840   -1.8915    0.0480 S.o2      1 <0>         2.7395
     15 O1         -6.3328   -1.2115    1.2948 O.2       1 <0>        -1.0432
     16 O2         -6.3518   -1.2077   -1.1958 O.2       1 <0>        -1.0432
     17 N3         -7.5283   -2.9842    0.0559 N.pl3     1 <0>        -1.2568
     18 F1          3.5864   -0.6173   -0.0373 F         1 <0>        -0.1305
     19 C12         3.6697    2.1962   -0.0221 C.3       1 <0>         0.5160
     20 F2          3.3910    3.5671   -0.0120 F         1 <0>        -0.1773
     21 F3          4.4202    1.8645    1.1110 F         1 <0>        -0.1773
     22 F4          4.3976    1.8768   -1.1734 F         1 <0>        -0.1773
     23 H1         -0.9589    1.9170    0.0260 H         1 <0>         0.1423
     24 H2          1.1554    3.1740    0.0081 H         1 <0>         0.1436
     25 H3          1.2409   -1.7594   -0.0212 H         1 <0>         0.1457
     26 H4         -0.3286   -2.7114    0.0005 H         1 <0>         0.1214
     27 H5         -2.4991   -3.9109    0.0161 H         1 <0>         0.1271
     28 H6         -2.5110    0.9814    0.0319 H         1 <0>         0.1411
     29 H7         -7.3385   -3.9354    0.0530 H         1 <0>         0.4079
     30 H8         -8.4470   -2.6729    0.0633 H         1 <0>         0.4029
@<TRIPOS>BOND
     1    1    6 ar
     2    1    2 ar
     3    1   23 1
     4    2    3 ar
     5    2   24 1
     6    3    4 ar
     7    3   19 1
     8    4    5 ar
     9    4   18 1
    10    5    6 ar
    11    5   25 1
    12    6    7 1
    13    7   12 ar
    14    7    8 ar
    15    8    9 ar
    16    8   26 1
    17    9   10 ar
    18    9   27 1
    19   10   11 ar
    20   10   13 1
    21   11   12 ar
    22   12   28 1
    23   13   14 1
    24   14   15 2
    25   14   16 2
    26   14   17 1
    27   17   29 1
    28   17   30 1
    29   19   20 1
    30   19   21 1
    31   19   22 1
@<TRIPOS>MOLECULE
CHEMBL470767__1
   31    32     0     0     0
SMALL
USER_CHARGES

@<TRIPOS>ATOM
      1 C1         -0.0168    1.3892    0.0097 C.ar      1 <0>        -0.1273
      2 C2          1.1701    2.0941    0.0021 C.ar      1 <0>        -0.0337
      3 C3          2.3776    1.4208   -0.0135 C.ar      1 <0>        -0.2256
      4 C4          2.4036    0.0354   -0.0216 C.ar      1 <0>         0.1613
      5 C5          1.2207   -0.6796   -0.0142 C.ar      1 <0>        -0.1539
      6 C6          0.0021   -0.0041    0.0020 C.ar      1 <0>         0.0317
      7 C7         -1.2711   -0.7657    0.0106 C.ar      1 <0>        -0.1437
      8 C8         -1.2604   -2.1654    0.0088 C.ar      1 <0>        -0.0211
      9 C9         -2.4698   -2.8313    0.0175 C.ar      1 <0>        -0.1927
     10 C10        -3.6513   -2.0946    0.0276 C.ar      1 <0>         0.3839
     11 N1         -3.6261   -0.7705    0.0290 N.ar      1 <0>        -0.5168
     12 C11        -2.4921   -0.0984    0.0263 C.ar      1 <0>         0.1753
     13 N2         -4.8723   -2.7572    0.0360 N.pl3     1 <0>        -1.0374
     14 S1         -6.2840   -1.8915    0.0480 S.o2      1 <0>         2.8007
     15 O1         -7.3421   -2.8398    0.0276 O.2       1 <0>        -0.9763
     16 O2         -6.1541   -0.9170    1.0741 O.2       1 <0>        -0.9503
     17 N3         -6.3628   -1.0634   -1.3839 N.pl3     1 <0>        -1.2495
     18 F1          3.5864   -0.6173   -0.0373 F         1 <0>        -0.1201
     19 C12         3.6697    2.1962   -0.0221 C.3       1 <0>         0.5127
     20 F2          3.3910    3.5671   -0.0120 F         1 <0>        -0.1720
     21 F3          4.4202    1.8645    1.1110 F         1 <0>        -0.1714
     22 F4          4.3976    1.8768   -1.1734 F         1 <0>        -0.1716
     23 H1         -0.9589    1.9170    0.0260 H         1 <0>         0.1481
     24 H2          1.1554    3.1740    0.0081 H         1 <0>         0.1542
     25 H3          1.2409   -1.7594   -0.0212 H         1 <0>         0.1509
     26 H4         -0.3286   -2.7114    0.0005 H         1 <0>         0.1476
     27 H5         -2.4991   -3.9109    0.0161 H         1 <0>         0.1478
     28 H6         -2.5110    0.9814    0.0319 H         1 <0>         0.1728
     29 H7         -4.8980   -3.7268    0.0347 H         1 <0>         0.4392
     30 H8         -5.6487   -1.1506   -2.0345 H         1 <0>         0.4143
     31 H9         -7.1232   -0.4912   -1.5721 H         1 <0>         0.4231
@<TRIPOS>BOND
     1    1    6 ar
     2    1    2 ar
     3    1   23 1
     4    2    3 ar
     5    2   24 1
     6    3    4 ar
     7    3   19 1
     8    4    5 ar
     9    4   18 1
    10    5    6 ar
    11    5   25 1
    12    6    7 1
    13    7   12 ar
    14    7    8 ar
    15    8    9 ar
    16    8   26 1
    17    9   10 ar
    18    9   27 1
    19   10   11 ar
    20   10   13 1
    21   11   12 ar
    22   12   28 1
    23   13   14 1
    24   13   29 1
    25   14   15 2
    26   14   16 2
    27   14   17 1
    28   17   30 1
    29   17   31 1
    30   19   20 1
    31   19   21 1
    32   19   22 1
@<TRIPOS>MOLECULE
CHEMBL470767__2
   31    32     0     0     0
SMALL
USER_CHARGES

@<TRIPOS>ATOM
      1 C1         -0.0168    1.3894    0.0097 C.ar      1 <0>        -0.1125
      2 C2          1.1700    2.0942    0.0021 C.ar      1 <0>        -0.0388
      3 C3          2.3776    1.4209   -0.0135 C.ar      1 <0>        -0.2180
      4 C4          2.4036    0.0354   -0.0212 C.ar      1 <0>         0.1572
      5 C5          1.2209   -0.6796   -0.0137 C.ar      1 <0>        -0.1432
      6 C6          0.0021   -0.0041    0.0020 C.ar      1 <0>         0.0242
      7 C7         -1.2709   -0.7657    0.0106 C.2       1 <0>        -0.1511
      8 C8         -2.1346   -0.6846    1.1289 C.2       1 <0>         0.0046
      9 C9         -3.2969   -1.3837    1.1287 C.2       1 <0>        -0.1523
     10 C10        -3.6267   -2.1837    0.0082 C.2       1 <0>         0.5272
     11 N1         -2.7701   -2.2445   -1.0645 N.pl3     1 <0>        -0.6189
     12 C11        -1.6083   -1.5365   -1.0596 C.2       1 <0>         0.1609
     13 N2         -4.7511   -2.8680   -0.0058 N.2       1 <0>        -1.0198
     14 S1         -5.1350   -3.8031   -1.3174 S.o2      1 <0>         2.7342
     15 O1         -5.3430   -2.9120   -2.4046 O.2       1 <0>        -1.0115
     16 O2         -4.1761   -4.8508   -1.3639 O.2       1 <0>        -1.0119
     17 N3         -6.5971   -4.5134   -1.0013 N.pl3     1 <0>        -1.2324
     18 F1          3.5865   -0.6172   -0.0364 F         1 <0>        -0.1191
     19 C12         3.6697    2.1963   -0.0226 C.3       1 <0>         0.5118
     20 F2          3.3910    3.5672   -0.0129 F         1 <0>        -0.1717
     21 F3          4.4204    1.8650    1.1104 F         1 <0>        -0.1707
     22 F4          4.3973    1.8765   -1.1740 F         1 <0>        -0.1710
     23 H1         -0.9589    1.9172    0.0260 H         1 <0>         0.1489
     24 H2          1.1554    3.1741    0.0081 H         1 <0>         0.1544
     25 H3          1.2411   -1.7594   -0.0204 H         1 <0>         0.1528
     26 H4         -1.8698   -0.0705    1.9769 H         1 <0>         0.1554
     27 H5         -3.9646   -1.3308    1.9759 H         1 <0>         0.1718
     28 H6         -0.9457   -1.5897   -1.9107 H         1 <0>         0.1807
     29 H7         -7.1998   -4.7280   -1.7304 H         1 <0>         0.4213
     30 H8         -6.8508   -4.7149   -0.0870 H         1 <0>         0.4204
     31 H9         -2.9967   -2.7931   -1.8316 H         1 <0>         0.4171
@<TRIPOS>BOND
     1    1    6 ar
     2    1    2 ar
     3    1   23 1
     4    2    3 ar
     5    2   24 1
     6    3    4 ar
     7    3   19 1
     8    4    5 ar
     9    4   18 1
    10    5    6 ar
    11    5   25 1
    12    6    7 1
    13    7   12 2
    14    7    8 1
    15    8    9 2
    16    8   26 1
    17    9   10 1
    18    9   27 1
    19   10   11 1
    20   10   13 2
    21   11   12 1
    22   11   31 1
    23   12   28 1
    24   13   14 1
    25   14   15 2
    26   14   16 2
    27   14   17 1
    28   17   29 1
    29   17   30 1
    30   19   20 1
    31   19   21 1
    32   19   22 1
@<TRIPOS>MOLECULE
CHEMBL208346
   67    70     0     0     0
SMALL
USER_CHARGES

@<TRIPOS>ATOM
      1 C1         -0.8054    1.8954    0.7061 C.3       1 <0>        -0.1656
      2 C2         -0.5684    0.3877    0.5992 C.3       1 <0>         0.1308
      3 N1         -1.8520   -0.2974    0.4279 N.am      1 <0>        -0.7321
      4 C3         -1.8891   -1.6396    0.3108 C.2       1 <0>         0.7427
      5 O1         -0.8573   -2.2819    0.3474 O.2       1 <0>        -0.5607
      6 N2         -3.0700   -2.2698    0.1532 N.am      1 <0>        -0.4685
      7 C4         -3.2459   -3.7115   -0.0838 C.3       1 <0>         0.2030
      8 C5         -4.7752   -3.8772   -0.1848 C.3       1 <0>        -0.1210
      9 C6         -5.3071   -2.4755    0.0113 C.2       1 <0>         0.1229
     10 N3         -4.3240   -1.6638    0.1941 N.2       1 <0>        -0.2143
     11 C7         -6.7322   -2.0970    0.0008 C.ar      1 <0>        -0.0344
     12 C8         -7.7151   -3.0696   -0.1962 C.ar      1 <0>        -0.1000
     13 C9         -9.0480   -2.7079   -0.2048 C.ar      1 <0>         0.0928
     14 C10        -9.4113   -1.3833   -0.0185 C.ar      1 <0>        -0.1079
     15 C11        -8.4438   -0.4150    0.1771 C.ar      1 <0>        -0.1254
     16 C12        -7.1065   -0.7633    0.1939 C.ar      1 <0>         0.1254
     17 F1         -6.1627    0.1831    0.3908 F         1 <0>        -0.1144
     18 F2        -10.0000   -3.6473   -0.3958 F         1 <0>        -0.1293
     19 C13        -2.6929   -4.5217    1.0904 C.3       1 <0>        -0.1212
     20 C14        -3.3305   -4.0328    2.3925 C.3       1 <0>        -0.1140
     21 C15        -2.6780   -4.7454    3.5788 C.3       1 <0>        -0.1287
     22 C16        -3.3156   -4.2565    4.8809 C.3       1 <0>         0.1204
     23 N4         -2.6908   -4.9389    6.0168 N.am      1 <0>        -0.7272
     24 C17        -3.0953   -4.6650    7.2729 C.2       1 <0>         0.5578
     25 O2         -3.9785   -3.8518    7.4633 O.2       1 <0>        -0.5347
     26 C18        -2.4648   -5.3536    8.4193 C.ar      1 <0>        -0.1376
     27 C19        -1.4465   -6.2836    8.2045 C.ar      1 <0>        -0.0874
     28 C20        -0.8620   -6.9223    9.2786 C.ar      1 <0>        -0.1273
     29 C21        -1.2835   -6.6431   10.5665 C.ar      1 <0>        -0.0929
     30 C22        -2.2928   -5.7225   10.7863 C.ar      1 <0>        -0.1267
     31 C23        -2.8814   -5.0722    9.7214 C.ar      1 <0>        -0.0598
     32 C24        -2.5817   -4.1220   -1.3727 C.ar      1 <0>        -0.0831
     33 C25        -2.0914   -5.4062   -1.5192 C.ar      1 <0>        -0.1033
     34 C26        -1.4821   -5.7827   -2.7015 C.ar      1 <0>        -0.1168
     35 C27        -1.3635   -4.8752   -3.7375 C.ar      1 <0>        -0.1143
     36 C28        -1.8545   -3.5913   -3.5914 C.ar      1 <0>        -0.1165
     37 C29        -2.4677   -3.2161   -2.4106 C.ar      1 <0>        -0.0993
     38 H1          0.1496    2.4052    0.8336 H         1 <0>         0.0769
     39 H2         -1.2893    2.2525   -0.2029 H         1 <0>         0.0625
     40 H3         -1.4452    2.1028    1.5639 H         1 <0>         0.0631
     41 H4          0.0714    0.1804   -0.2586 H         1 <0>         0.0673
     42 H5         -0.0844    0.0306    1.5082 H         1 <0>         0.0672
     43 H6         -2.6751    0.2149    0.3987 H         1 <0>         0.4071
     44 H7         -5.0544   -4.2581   -1.1671 H         1 <0>         0.1086
     45 H8         -5.1409   -4.5383    0.6009 H         1 <0>         0.1128
     46 H9         -7.4334   -4.1020   -0.3419 H         1 <0>         0.1520
     47 H10       -10.4551   -1.1061   -0.0266 H         1 <0>         0.1512
     48 H11        -8.7340    0.6152    0.3213 H         1 <0>         0.1531
     49 H12        -2.9257   -5.5766    0.9456 H         1 <0>         0.0825
     50 H13        -1.6120   -4.3921    1.1442 H         1 <0>         0.0927
     51 H14        -3.1819   -2.9572    2.4883 H         1 <0>         0.0653
     52 H15        -4.3980   -4.2524    2.3792 H         1 <0>         0.0659
     53 H16        -2.8265   -5.8210    3.4830 H         1 <0>         0.0721
     54 H17        -1.6104   -4.5258    3.5922 H         1 <0>         0.0719
     55 H18        -3.1670   -3.1810    4.9767 H         1 <0>         0.0677
     56 H19        -4.3831   -4.4761    4.8676 H         1 <0>         0.0694
     57 H20        -1.9860   -5.5878    5.8649 H         1 <0>         0.4002
     58 H21        -1.1170   -6.5030    7.1996 H         1 <0>         0.1248
     59 H22        -0.0739   -7.6422    9.1138 H         1 <0>         0.1300
     60 H23        -0.8229   -7.1461   11.4039 H         1 <0>         0.1287
     61 H24        -2.6175   -5.5093   11.7940 H         1 <0>         0.1314
     62 H25        -3.6657   -4.3503    9.8946 H         1 <0>         0.1364
     63 H26        -2.1841   -6.1152   -0.7098 H         1 <0>         0.1259
     64 H27        -1.0985   -6.7858   -2.8157 H         1 <0>         0.1250
     65 H28        -0.8868   -5.1692   -4.6610 H         1 <0>         0.1231
     66 H29        -1.7616   -2.8822   -4.4006 H         1 <0>         0.1215
     67 H30        -2.8546   -2.2141   -2.2978 H         1 <0>         0.1123
@<TRIPOS>BOND
     1    1    2 1
     2    1   38 1
     3    1   39 1
     4    1   40 1
     5    2    3 1
     6    2   41 1
     7    2   42 1
     8    3    4 am
     9    3   43 1
    10    4    5 2
    11    4    6 am
    12    6   10 1
    13    6    7 1
    14    7    8 1
    15    7   19 1
    16    7   32 1
    17    8    9 1
    18    8   44 1
    19    8   45 1
    20    9   10 2
    21    9   11 1
    22   11   16 ar
    23   11   12 ar
    24   12   13 ar
    25   12   46 1
    26   13   14 ar
    27   13   18 1
    28   14   15 ar
    29   14   47 1
    30   15   16 ar
    31   15   48 1
    32   16   17 1
    33   19   20 1
    34   19   49 1
    35   19   50 1
    36   20   21 1
    37   20   51 1
    38   20   52 1
    39   21   22 1
    40   21   53 1
    41   21   54 1
    42   22   23 1
    43   22   55 1
    44   22   56 1
    45   23   24 am
    46   23   57 1
    47   24   25 2
    48   24   26 1
    49   26   31 ar
    50   26   27 ar
    51   27   28 ar
    52   27   58 1
    53   28   29 ar
    54   28   59 1
    55   29   30 ar
    56   29   60 1
    57   30   31 ar
    58   30   61 1
    59   31   62 1
    60   32   37 ar
    61   32   33 ar
    62   33   34 ar
    63   33   63 1
    64   34   35 ar
    65   34   64 1
    66   35   36 ar
    67   35   65 1
    68   36   37 ar
    69   36   66 1
    70   37   67 1
@<TRIPOS>MOLECULE
CHEMBL208346__1
   67    70     0     0     0
SMALL
USER_CHARGES

@<TRIPOS>ATOM
      1 C1          0.4316    1.2522    0.1437 C.3       1 <0>        -0.1656
      2 C2          0.3254   -0.2739    0.1147 C.3       1 <0>         0.1308
      3 N1         -1.0863   -0.6649    0.0948 N.am      1 <0>        -0.7320
      4 C3         -1.4239   -1.9694    0.0678 C.2       1 <0>         0.7416
      5 O1         -0.5568   -2.8218    0.0599 O.2       1 <0>        -0.5597
      6 N2         -2.7227   -2.3291    0.0495 N.am      1 <0>        -0.4686
      7 C4         -3.2281   -3.7048   -0.0830 C.3       1 <0>         0.2029
      8 C5         -4.7595   -3.5325   -0.0441 C.3       1 <0>        -0.1211
      9 C6         -4.9543   -2.0410    0.1100 C.2       1 <0>         0.1222
     10 N3         -3.8061   -1.4598    0.1590 N.2       1 <0>        -0.2138
     11 C7         -6.2582   -1.3578    0.1968 C.ar      1 <0>        -0.0344
     12 C8         -7.4424   -2.0965    0.1435 C.ar      1 <0>        -0.1001
     13 C9         -8.6601   -1.4499    0.2254 C.ar      1 <0>         0.0928
     14 C10        -8.7088   -0.0712    0.3602 C.ar      1 <0>        -0.1079
     15 C11        -7.5405    0.6666    0.4137 C.ar      1 <0>        -0.1254
     16 C12        -6.3149    0.0325    0.3387 C.ar      1 <0>         0.1253
     17 F1         -5.1743    0.7542    0.3968 F         1 <0>        -0.1143
     18 F2         -9.8065   -2.1628    0.1736 F         1 <0>        -0.1293
     19 C13        -2.7885   -4.3140   -1.4159 C.3       1 <0>        -0.1209
     20 C14        -3.2180   -3.3963   -2.5623 C.3       1 <0>        -0.1144
     21 C15        -2.8609   -4.0491   -3.8992 C.3       1 <0>        -0.1292
     22 C16        -3.2904   -3.1314   -5.0457 C.3       1 <0>         0.1201
     23 N4         -2.9485   -3.7565   -6.3258 N.am      1 <0>        -0.7275
     24 C17        -3.2351   -3.1254   -7.4817 C.2       1 <0>         0.5580
     25 O2         -3.7773   -2.0377   -7.4620 O.2       1 <0>        -0.5344
     26 C18        -2.8900   -3.7562   -8.7735 C.ar      1 <0>        -0.1378
     27 C19        -2.2727   -5.0077   -8.7997 C.ar      1 <0>        -0.0874
     28 C20        -1.9537   -5.5909  -10.0085 C.ar      1 <0>        -0.1273
     29 C21        -2.2441   -4.9379  -11.1932 C.ar      1 <0>        -0.0928
     30 C22        -2.8556   -3.6969  -11.1743 C.ar      1 <0>        -0.1267
     31 C23        -3.1854   -3.1053   -9.9724 C.ar      1 <0>        -0.0597
     32 C24        -2.7605   -4.5550    1.0701 C.ar      1 <0>        -0.0814
     33 C25        -2.5660   -5.9122    0.8939 C.ar      1 <0>        -0.1039
     34 C26        -2.1372   -6.6920    1.9517 C.ar      1 <0>        -0.1175
     35 C27        -1.9024   -6.1145    3.1855 C.ar      1 <0>        -0.1143
     36 C28        -2.0960   -4.7572    3.3615 C.ar      1 <0>        -0.1169
     37 C29        -2.5208   -3.9766    2.3026 C.ar      1 <0>        -0.0954
     38 H1          1.4819    1.5431    0.1585 H         1 <0>         0.0769
     39 H2         -0.0478    1.6667   -0.7432 H         1 <0>         0.0629
     40 H3         -0.0638    1.6339    1.0364 H         1 <0>         0.0628
     41 H4          0.8208   -0.6556   -0.7780 H         1 <0>         0.0673
     42 H5          0.8048   -0.6883    1.0015 H         1 <0>         0.0671
     43 H6         -1.7781    0.0151    0.1011 H         1 <0>         0.4072
     44 H7         -5.2074   -3.8826   -0.9741 H         1 <0>         0.1130
     45 H8         -5.1824   -4.0634    0.8088 H         1 <0>         0.1088
     46 H9         -7.4059   -3.1707    0.0382 H         1 <0>         0.1519
     47 H10        -9.6638    0.4292    0.4234 H         1 <0>         0.1513
     48 H11        -7.5859    1.7406    0.5185 H         1 <0>         0.1531
     49 H12        -1.7041   -4.4237   -1.4251 H         1 <0>         0.0895
     50 H13        -3.2537   -5.2919   -1.5395 H         1 <0>         0.0842
     51 H14        -4.2947   -3.2336   -2.5136 H         1 <0>         0.0667
     52 H15        -2.7017   -2.4403   -2.4754 H         1 <0>         0.0649
     53 H16        -1.7842   -4.2118   -3.9480 H         1 <0>         0.0718
     54 H17        -3.3772   -5.0051   -3.9861 H         1 <0>         0.0726
     55 H18        -4.3671   -2.9687   -4.9969 H         1 <0>         0.0696
     56 H19        -2.7742   -2.1754   -4.9588 H         1 <0>         0.0681
     57 H20        -2.5159   -4.6245   -6.3414 H         1 <0>         0.4002
     58 H21        -2.0448   -5.5182   -7.8756 H         1 <0>         0.1248
     59 H22        -1.4760   -6.5593  -10.0302 H         1 <0>         0.1300
     60 H23        -1.9921   -5.3986  -12.1369 H         1 <0>         0.1288
     61 H24        -3.0793   -3.1922  -12.1025 H         1 <0>         0.1314
     62 H25        -3.6671   -2.1388   -9.9590 H         1 <0>         0.1364
     63 H26        -2.7495   -6.3633   -0.0700 H         1 <0>         0.1251
     64 H27        -1.9859   -7.7525    1.8142 H         1 <0>         0.1245
     65 H28        -1.5680   -6.7239    4.0121 H         1 <0>         0.1227
     66 H29        -1.9129   -4.3061    4.3255 H         1 <0>         0.1211
     67 H30        -2.6685   -2.9155    2.4391 H         1 <0>         0.1115
@<TRIPOS>BOND
     1    1    2 1
     2    1   38 1
     3    1   39 1
     4    1   40 1
     5    2    3 1
     6    2   41 1
     7    2   42 1
     8    3    4 am
     9    3   43 1
    10    4    5 2
    11    4    6 am
    12    6   10 1
    13    6    7 1
    14    7    8 1
    15    7   19 1
    16    7   32 1
    17    8    9 1
    18    8   44 1
    19    8   45 1
    20    9   10 2
    21    9   11 1
    22   11   16 ar
    23   11   12 ar
    24   12   13 ar
    25   12   46 1
    26   13   14 ar
    27   13   18 1
    28   14   15 ar
    29   14   47 1
    30   15   16 ar
    31   15   48 1
    32   16   17 1
    33   19   20 1
    34   19   49 1
    35   19   50 1
    36   20   21 1
    37   20   51 1
    38   20   52 1
    39   21   22 1
    40   21   53 1
    41   21   54 1
    42   22   23 1
    43   22   55 1
    44   22   56 1
    45   23   24 am
    46   23   57 1
    47   24   25 2
    48   24   26 1
    49   26   31 ar
    50   26   27 ar
    51   27   28 ar
    52   27   58 1
    53   28   29 ar
    54   28   59 1
    55   29   30 ar
    56   29   60 1
    57   30   31 ar
    58   30   61 1
    59   31   62 1
    60   32   37 ar
    61   32   33 ar
    62   33   34 ar
    63   33   63 1
    64   34   35 ar
    65   34   64 1
    66   35   36 ar
    67   35   65 1
    68   36   37 ar
    69   36   66 1
    70   37   67 1
@<TRIPOS>MOLECULE
CHEMBL213686
   66    69     0     0     0
SMALL
USER_CHARGES

@<TRIPOS>ATOM
      1 C1         -1.4115   -0.3750    0.0614 C.3       1 <0>        -0.1590
      2 C2         -0.1903   -1.2934   -0.0170 C.3       1 <0>        -0.1394
      3 C3          0.8725   -0.8144    0.9740 C.3       1 <0>         0.1927
      4 C4          2.1243   -1.6360    0.8041 C.2       1 <0>         0.3637
      5 N1          2.2416   -2.7316    1.4759 N.2       1 <0>        -0.3071
      6 N2          3.3808   -3.5382    1.3611 N.pl3     1 <0>        -0.2684
      7 C5          4.3947   -3.1428    0.5073 C.2       1 <0>        -0.0944
      8 C6          5.3920   -4.0907    0.5707 C.2       1 <0>        -0.0655
      9 C7          4.9666   -5.0661    1.4758 C.2       1 <0>        -0.1680
     10 C8          3.7413   -4.7012    1.9383 C.2       1 <0>         0.1318
     11 Cl1         2.7930   -5.5912    3.0882 Cl        1 <0>        -0.0037
     12 C9          4.2305   -1.8962   -0.2398 C.2       1 <0>         0.5878
     13 O1          5.0950   -1.5064   -1.0040 O.2       1 <0>        -0.4710
     14 N3          3.0910   -1.1914   -0.0631 N.am      1 <0>        -0.5494
     15 C10         2.8884    0.0596   -0.7982 C.3       1 <0>         0.1387
     16 C11         3.6621    1.1663   -0.1291 C.ar      1 <0>        -0.1367
     17 C12         3.0253    2.0198    0.7523 C.ar      1 <0>        -0.0987
     18 C13         3.7350    3.0349    1.3660 C.ar      1 <0>        -0.1191
     19 C14         5.0816    3.1964    1.0987 C.ar      1 <0>        -0.1030
     20 C15         5.7186    2.3423    0.2180 C.ar      1 <0>        -0.1226
     21 C16         5.0099    1.3245   -0.3925 C.ar      1 <0>        -0.0899
     22 N4          0.3696   -0.9677    2.3414 N.am      1 <0>        -0.5932
     23 C17        -0.1518   -2.2614    2.7894 C.3       1 <0>         0.0906
     24 C18        -1.6038   -2.4123    2.3315 C.3       1 <0>        -0.1993
     25 C19        -2.2059   -3.6742    2.9528 C.3       1 <0>        -0.0116
     26 N5         -3.5593   -3.8838    2.4214 N.4       1 <0>        -0.6371
     27 C20         0.3866    0.0815    3.1872 C.2       1 <0>         0.5682
     28 O2          0.6569    1.1918    2.7730 O.2       1 <0>        -0.5037
     29 C21         0.0764   -0.1181    4.6189 C.ar      1 <0>        -0.1367
     30 C22        -1.0525   -0.8470    4.9965 C.ar      1 <0>        -0.1042
     31 C23        -1.3359   -1.0300    6.3342 C.ar      1 <0>        -0.1290
     32 C24        -0.5044   -0.4924    7.3006 C.ar      1 <0>        -0.0520
     33 C25         0.6160    0.2315    6.9330 C.ar      1 <0>        -0.1155
     34 C26         0.9142    0.4166    5.5988 C.ar      1 <0>        -0.0564
     35 C27        -0.8205   -0.6959    8.7599 C.3       1 <0>        -0.1265
     36 H1         -1.1160    0.6444   -0.1873 H         1 <0>         0.0703
     37 H2         -2.1686   -0.7162   -0.6446 H         1 <0>         0.0692
     38 H3         -1.8198   -0.3987    1.0717 H         1 <0>         0.0600
     39 H4         -0.4858   -2.3127    0.2316 H         1 <0>         0.0831
     40 H5          0.2180   -1.2696   -1.0273 H         1 <0>         0.0905
     41 H6          1.0983    0.2352    0.7854 H         1 <0>         0.1434
     42 H7          6.3240   -4.0817    0.0252 H         1 <0>         0.1681
     43 H8          5.5142   -5.9531    1.7582 H         1 <0>         0.1734
     44 H9          3.2390   -0.0606   -1.8232 H         1 <0>         0.1130
     45 H10         1.8276    0.3099   -0.8040 H         1 <0>         0.1024
     46 H11         1.9732    1.8936    0.9612 H         1 <0>         0.1278
     47 H12         3.2372    3.7022    2.0541 H         1 <0>         0.1257
     48 H13         5.6359    3.9899    1.5776 H         1 <0>         0.1259
     49 H14         6.7706    2.4686    0.0088 H         1 <0>         0.1268
     50 H15         5.5084    0.6549   -1.0777 H         1 <0>         0.1362
     51 H16         0.4495   -3.0634    2.3612 H         1 <0>         0.1189
     52 H17        -0.1064   -2.3144    3.8772 H         1 <0>         0.1072
     53 H18        -2.1774   -1.5417    2.6493 H         1 <0>         0.0990
     54 H19        -1.6358   -2.4916    1.2449 H         1 <0>         0.1083
     55 H20        -1.5820   -4.5335    2.7070 H         1 <0>         0.1408
     56 H21        -2.2547   -3.5584    4.0355 H         1 <0>         0.1382
     57 H22        -3.9871   -4.6681    2.8904 H         1 <0>         0.4412
     58 H23        -4.1139   -3.0554    2.5772 H         1 <0>         0.4357
     59 H24        -1.7027   -1.2666    4.2432 H         1 <0>         0.1242
     60 H25        -2.2091   -1.5938    6.6278 H         1 <0>         0.1283
     61 H26         1.2608    0.6488    7.6922 H         1 <0>         0.1353
     62 H27         1.7917    0.9778    5.3132 H         1 <0>         0.1324
     63 H28        -0.3392   -1.6082    9.1122 H         1 <0>         0.0792
     64 H29        -0.4516    0.1543    9.3336 H         1 <0>         0.0749
     65 H30        -1.8994   -0.7810    8.8895 H         1 <0>         0.0718
     66 H31        -3.5066   -4.0719    1.4315 H         1 <0>         0.4364
@<TRIPOS>BOND
     1    1    2 1
     2    1   36 1
     3    1   37 1
     4    1   38 1
     5    2    3 1
     6    2   39 1
     7    2   40 1
     8    3    4 1
     9    3   22 1
    10    3   41 1
    11    4   14 1
    12    4    5 2
    13    5    6 1
    14    6   10 1
    15    6    7 1
    16    7    8 2
    17    7   12 1
    18    8    9 1
    19    8   42 1
    20    9   10 2
    21    9   43 1
    22   10   11 1
    23   12   13 2
    24   12   14 am
    25   14   15 1
    26   15   16 1
    27   15   44 1
    28   15   45 1
    29   16   21 ar
    30   16   17 ar
    31   17   18 ar
    32   17   46 1
    33   18   19 ar
    34   18   47 1
    35   19   20 ar
    36   19   48 1
    37   20   21 ar
    38   20   49 1
    39   21   50 1
    40   22   23 1
    41   22   27 am
    42   23   24 1
    43   23   51 1
    44   23   52 1
    45   24   25 1
    46   24   53 1
    47   24   54 1
    48   25   26 1
    49   25   55 1
    50   25   56 1
    51   26   57 1
    52   26   58 1
    53   26   66 1
    54   27   28 2
    55   27   29 1
    56   29   34 ar
    57   29   30 ar
    58   30   31 ar
    59   30   59 1
    60   31   32 ar
    61   31   60 1
    62   32   33 ar
    63   32   35 1
    64   33   34 ar
    65   33   61 1
    66   34   62 1
    67   35   63 1
    68   35   64 1
    69   35   65 1
@<TRIPOS>MOLECULE
CHEMBL213686__1
   66    69     0     0     0
SMALL
USER_CHARGES

@<TRIPOS>ATOM
      1 C1         -0.0023    0.3730   -0.2414 C.3       1 <0>        -0.1686
      2 C2          0.4315   -1.0346    0.1726 C.3       1 <0>        -0.1374
      3 C3          1.1714   -0.9675    1.5101 C.3       1 <0>         0.1490
      4 C4          1.4878   -2.3640    1.9798 C.2       1 <0>         0.3621
      5 N1          2.1497   -3.1460    1.1950 N.2       1 <0>        -0.3034
      6 N2          2.4742   -4.4545    1.5743 N.pl3     1 <0>        -0.2683
      7 C5          2.0720   -4.9076    2.8178 C.2       1 <0>        -0.0947
      8 C6          2.5060   -6.2078    2.9526 C.2       1 <0>        -0.0641
      9 C7          3.1770   -6.5353    1.7720 C.2       1 <0>        -0.1668
     10 C8          3.1401   -5.4490    0.9553 C.2       1 <0>         0.1328
     11 Cl1         3.8390   -5.3578   -0.6312 Cl        1 <0>        -0.0032
     12 C9          1.3239   -3.9963    3.6833 C.2       1 <0>         0.5863
     13 O1          0.9484   -4.3488    4.7870 O.2       1 <0>        -0.4714
     14 N3          1.0650   -2.7508    3.2270 N.am      1 <0>        -0.5472
     15 C10         0.3227   -1.8082    4.0677 C.3       1 <0>         0.1183
     16 C11        -1.1567   -2.0340    3.8899 C.ar      1 <0>        -0.1204
     17 C12        -1.8253   -1.4372    2.8374 C.ar      1 <0>        -0.1165
     18 C13        -3.1823   -1.6443    2.6743 C.ar      1 <0>        -0.1186
     19 C14        -3.8705   -2.4485    3.5634 C.ar      1 <0>        -0.1024
     20 C15        -3.2017   -3.0460    4.6153 C.ar      1 <0>        -0.1132
     21 C16        -1.8439   -2.8424    4.7759 C.ar      1 <0>        -0.0850
     22 N4          2.4171   -0.2149    1.3419 N.am      1 <0>        -0.5965
     23 C17         3.3769   -0.6089    0.3077 C.3       1 <0>         0.1087
     24 C18         3.1464    0.2324   -0.9493 C.3       1 <0>        -0.1814
     25 C19         4.1489   -0.1791   -2.0294 C.3       1 <0>        -0.0069
     26 N5          3.9275    0.6287   -3.2362 N.4       1 <0>        -0.6364
     27 C20         2.6799    0.8399    2.1386 C.2       1 <0>         0.5710
     28 O2          3.6742    1.5127    1.9479 O.2       1 <0>        -0.5087
     29 C21         1.7590    1.1786    3.2445 C.ar      1 <0>        -0.1564
     30 C22         0.3784    1.0961    3.0571 C.ar      1 <0>        -0.1270
     31 C23        -0.4754    1.4132    4.0933 C.ar      1 <0>        -0.1155
     32 C24         0.0341    1.8127    5.3160 C.ar      1 <0>        -0.0453
     33 C25         1.4017    1.8970    5.5083 C.ar      1 <0>        -0.1140
     34 C26         2.2666    1.5768    4.4822 C.ar      1 <0>        -0.0552
     35 C27        -0.9045    2.1579    6.4433 C.3       1 <0>        -0.1280
     36 H1          0.8541    1.0458   -0.1941 H         1 <0>         0.0638
     37 H2         -0.3896    0.3490   -1.2600 H         1 <0>         0.0759
     38 H3         -0.7803    0.7272    0.4349 H         1 <0>         0.0673
     39 H4         -0.4479   -1.6703    0.2754 H         1 <0>         0.0927
     40 H5          1.0928   -1.4494   -0.5881 H         1 <0>         0.0886
     41 H6          0.5430   -0.4695    2.2484 H         1 <0>         0.1629
     42 H7          2.3562   -6.8509    3.8073 H         1 <0>         0.1690
     43 H8          3.6427   -7.4835    1.5477 H         1 <0>         0.1744
     44 H9          0.5910   -1.9641    5.1126 H         1 <0>         0.1120
     45 H10         0.5720   -0.7878    3.7769 H         1 <0>         0.1119
     46 H11        -1.2876   -0.8089    2.1428 H         1 <0>         0.1105
     47 H12        -3.7048   -1.1775    1.8525 H         1 <0>         0.1274
     48 H13        -4.9308   -2.6098    3.4363 H         1 <0>         0.1288
     49 H14        -3.7395   -3.6741    5.3101 H         1 <0>         0.1299
     50 H15        -1.3206   -3.3122    5.5956 H         1 <0>         0.1317
     51 H16         4.3912   -0.4467    0.6725 H         1 <0>         0.0951
     52 H17         3.2411   -1.6637    0.0688 H         1 <0>         0.1124
     53 H18         2.1322    0.0702   -1.3141 H         1 <0>         0.0980
     54 H19         3.2822    1.2872   -0.7104 H         1 <0>         0.0982
     55 H20         5.1631   -0.0168   -1.6645 H         1 <0>         0.1382
     56 H21         4.0130   -1.2339   -2.2682 H         1 <0>         0.1372
     57 H22         4.5886    0.3574   -3.9485 H         1 <0>         0.4401
     58 H23         2.9887    0.4786   -3.5739 H         1 <0>         0.4347
     59 H24        -0.0207    0.7851    2.1029 H         1 <0>         0.1394
     60 H25        -1.5440    1.3498    3.9496 H         1 <0>         0.1380
     61 H26         1.7931    2.2098    6.4650 H         1 <0>         0.1394
     62 H27         3.3340    1.6383    4.6350 H         1 <0>         0.1370
     63 H28        -1.1149    1.2625    7.0281 H         1 <0>         0.0822
     64 H29        -0.4427    2.9098    7.0833 H         1 <0>         0.0761
     65 H30        -1.8350    2.5513    6.0338 H         1 <0>         0.0751
     66 H31         4.0533    1.6052   -3.0151 H         1 <0>         0.4367
@<TRIPOS>BOND
     1    1    2 1
     2    1   36 1
     3    1   37 1
     4    1   38 1
     5    2    3 1
     6    2   39 1
     7    2   40 1
     8    3    4 1
     9    3   22 1
    10    3   41 1
    11    4   14 1
    12    4    5 2
    13    5    6 1
    14    6   10 1
    15    6    7 1
    16    7    8 2
    17    7   12 1
    18    8    9 1
    19    8   42 1
    20    9   10 2
    21    9   43 1
    22   10   11 1
    23   12   13 2
    24   12   14 am
    25   14   15 1
    26   15   16 1
    27   15   44 1
    28   15   45 1
    29   16   21 ar
    30   16   17 ar
    31   17   18 ar
    32   17   46 1
    33   18   19 ar
    34   18   47 1
    35   19   20 ar
    36   19   48 1
    37   20   21 ar
    38   20   49 1
    39   21   50 1
    40   22   23 1
    41   22   27 am
    42   23   24 1
    43   23   51 1
    44   23   52 1
    45   24   25 1
    46   24   53 1
    47   24   54 1
    48   25   26 1
    49   25   55 1
    50   25   56 1
    51   26   57 1
    52   26   58 1
    53   26   66 1
    54   27   28 2
    55   27   29 1
    56   29   34 ar
    57   29   30 ar
    58   30   31 ar
    59   30   59 1
    60   31   32 ar
    61   31   60 1
    62   32   33 ar
    63   32   35 1
    64   33   34 ar
    65   33   61 1
    66   34   62 1
    67   35   63 1
    68   35   64 1
    69   35   65 1
@<TRIPOS>MOLECULE
CHEMBL381985
   60    63     0     0     0
SMALL
USER_CHARGES

@<TRIPOS>ATOM
      1 C1         -0.7121    0.3556   -0.0299 C.ar      1 <0>        -0.1086
      2 C2          0.2213    1.3748    0.0027 C.ar      1 <0>        -0.1107
      3 C3          1.5700    1.0756    0.0501 C.ar      1 <0>        -0.0898
      4 C4          1.9854   -0.2428    0.0653 C.ar      1 <0>        -0.0875
      5 C5          1.0520   -1.2620    0.0336 C.ar      1 <0>        -0.1141
      6 C6         -0.2967   -0.9628   -0.0152 C.ar      1 <0>        -0.1175
      7 C7          3.4558   -0.5690    0.1160 C.3       1 <0>         0.2034
      8 C8          3.9640   -0.5587    1.5714 C.3       1 <0>        -0.1226
      9 C9          5.0094    0.5337    1.5843 C.2       1 <0>         0.1385
     10 N1          5.1029    1.0538    0.4099 N.2       1 <0>        -0.2183
     11 N2          4.2441    0.4911   -0.5322 N.am      1 <0>        -0.4714
     12 C10         4.1510    0.8576   -1.8258 C.2       1 <0>         0.7437
     13 O1          3.2595    0.4109   -2.5217 O.2       1 <0>        -0.5764
     14 N3          5.0461    1.7193   -2.3482 N.am      1 <0>        -0.6062
     15 C11         6.2329    2.1222   -1.5815 C.3       1 <0>         0.0781
     16 C12         7.4807    1.8620   -2.4313 C.3       1 <0>        -0.1325
     17 C13         7.3323    2.5718   -3.7790 C.3       1 <0>        -0.1255
     18 C14         6.1168    2.0116   -4.5213 C.3       1 <0>        -0.1311
     19 C15         4.8568    2.2688   -3.6976 C.3       1 <0>         0.1241
     20 C16         5.7997    0.9411    2.7606 C.ar      1 <0>        -0.0488
     21 C17         5.6149    0.2985    3.9869 C.ar      1 <0>        -0.0976
     22 C18         6.3591    0.6850    5.0844 C.ar      1 <0>         0.0957
     23 C19         7.2872    1.7083    4.9711 C.ar      1 <0>        -0.1003
     24 C20         7.4752    2.3492    3.7604 C.ar      1 <0>        -0.1234
     25 C21         6.7421    1.9689    2.6523 C.ar      1 <0>         0.1275
     26 F1          6.9313    2.5921    1.4686 F         1 <0>        -0.1151
     27 F2          6.1816    0.0646    6.2713 F         1 <0>        -0.1258
     28 C22         3.7285   -1.9224   -0.5434 C.3       1 <0>        -0.1162
     29 C23         3.4115   -1.8348   -2.0377 C.3       1 <0>        -0.1583
     30 C24         3.5154   -3.2270   -2.6636 C.3       1 <0>        -0.0152
     31 N4          3.2111   -3.1428   -4.0982 N.4       1 <0>        -0.6345
     32 H1         -1.7660    0.5894   -0.0624 H         1 <0>         0.1261
     33 H2         -0.1032    2.4048   -0.0092 H         1 <0>         0.1244
     34 H3          2.2993    1.8718    0.0749 H         1 <0>         0.1130
     35 H4          1.3766   -2.2920    0.0452 H         1 <0>         0.1218
     36 H5         -1.0259   -1.7590   -0.0404 H         1 <0>         0.1255
     37 H6          3.1522   -0.3191    2.2581 H         1 <0>         0.1160
     38 H7          4.4115   -1.5191    1.8270 H         1 <0>         0.1151
     39 H8          6.1695    3.1834   -1.3408 H         1 <0>         0.0670
     40 H9          6.2890    1.5395   -0.6620 H         1 <0>         0.1379
     41 H10         8.3600    2.2449   -1.9133 H         1 <0>         0.0777
     42 H11         7.5923    0.7901   -2.5950 H         1 <0>         0.0581
     43 H12         7.1959    3.6405   -3.6134 H         1 <0>         0.0678
     44 H13         8.2294    2.4086   -4.3761 H         1 <0>         0.0676
     45 H14         6.0254    2.5011   -5.4910 H         1 <0>         0.0792
     46 H15         6.2414    0.9384   -4.6653 H         1 <0>         0.0603
     47 H16         4.0052    1.7829   -4.1739 H         1 <0>         0.0911
     48 H17         4.6786    3.3422   -3.6333 H         1 <0>         0.0706
     49 H18         4.8916   -0.4984    4.0768 H         1 <0>         0.1523
     50 H19         7.8661    2.0066    5.8327 H         1 <0>         0.1551
     51 H20         8.1998    3.1460    3.6794 H         1 <0>         0.1563
     52 H21         4.7773   -2.1872   -0.4094 H         1 <0>         0.0804
     53 H22         3.0997   -2.6843   -0.0827 H         1 <0>         0.0939
     54 H23         2.4006   -1.4502   -2.1727 H         1 <0>         0.1106
     55 H24         4.1227   -1.1650   -2.5212 H         1 <0>         0.1072
     56 H25         4.5264   -3.6116   -2.5285 H         1 <0>         0.1268
     57 H26         2.8043   -3.8968   -2.1800 H         1 <0>         0.1289
     58 H27         2.2753   -2.7869   -4.2233 H         1 <0>         0.4363
     59 H28         3.8694   -2.5229   -4.5459 H         1 <0>         0.4347
     60 H29         3.2797   -4.0610   -4.5110 H         1 <0>         0.4351
@<TRIPOS>BOND
     1    1    6 ar
     2    1    2 ar
     3    1   32 1
     4    2    3 ar
     5    2   33 1
     6    3    4 ar
     7    3   34 1
     8    4    5 ar
     9    4    7 1
    10    5    6 ar
    11    5   35 1
    12    6   36 1
    13    7   11 1
    14    7    8 1
    15    7   28 1
    16    8    9 1
    17    8   37 1
    18    8   38 1
    19    9   10 2
    20    9   20 1
    21   10   11 1
    22   11   12 am
    23   12   13 2
    24   12   14 am
    25   14   19 1
    26   14   15 1
    27   15   16 1
    28   15   39 1
    29   15   40 1
    30   16   17 1
    31   16   41 1
    32   16   42 1
    33   17   18 1
    34   17   43 1
    35   17   44 1
    36   18   19 1
    37   18   45 1
    38   18   46 1
    39   19   47 1
    40   19   48 1
    41   20   25 ar
    42   20   21 ar
    43   21   22 ar
    44   21   49 1
    45   22   23 ar
    46   22   27 1
    47   23   24 ar
    48   23   50 1
    49   24   25 ar
    50   24   51 1
    51   25   26 1
    52   28   29 1
    53   28   52 1
    54   28   53 1
    55   29   30 1
    56   29   54 1
    57   29   55 1
    58   30   31 1
    59   30   56 1
    60   30   57 1
    61   31   58 1
    62   31   59 1
    63   31   60 1
@<TRIPOS>MOLECULE
CHEMBL381985__1
   60    63     0     0     0
SMALL
USER_CHARGES

@<TRIPOS>ATOM
      1 C1          0.0283    1.0097   -0.2033 C.ar      1 <0>        -0.1084
      2 C2          1.1528    1.8132   -0.2301 C.ar      1 <0>        -0.1104
      3 C3          2.4102    1.2456   -0.1426 C.ar      1 <0>        -0.0939
      4 C4          2.5431   -0.1255   -0.0279 C.ar      1 <0>        -0.0896
      5 C5          1.4186   -0.9290   -0.0002 C.ar      1 <0>        -0.1125
      6 C6          0.1613   -0.3615   -0.0891 C.ar      1 <0>        -0.1167
      7 C7          3.9139   -0.7444    0.0664 C.3       1 <0>         0.2037
      8 C8          4.5077   -0.9646   -1.3390 C.3       1 <0>        -0.1231
      9 C9          5.7555   -0.1107   -1.3450 C.2       1 <0>         0.1433
     10 N1          5.8775    0.4811   -0.2077 N.2       1 <0>        -0.2205
     11 N2          4.8607    0.1880    0.6988 N.am      1 <0>        -0.4691
     12 C10         4.7604    0.6786    1.9500 C.2       1 <0>         0.7416
     13 O1          3.8204    0.3624    2.6536 O.2       1 <0>        -0.5769
     14 N3          5.7021    1.5197    2.4216 N.am      1 <0>        -0.6050
     15 C11         6.7368    2.0607    1.5297 C.3       1 <0>         0.0622
     16 C12         6.7352    3.5885    1.6424 C.3       1 <0>        -0.1334
     17 C13         6.8993    3.9879    3.1106 C.3       1 <0>        -0.1237
     18 C14         5.7233    3.4424    3.9239 C.3       1 <0>        -0.1357
     19 C15         5.7098    1.9177    3.8358 C.3       1 <0>         0.1270
     20 C16         6.6892    0.0235   -2.4785 C.ar      1 <0>        -0.0507
     21 C17         6.4504   -0.6656   -3.6696 C.ar      1 <0>        -0.0968
     22 C18         7.3290   -0.5348   -4.7273 C.ar      1 <0>         0.0958
     23 C19         8.4458    0.2775   -4.6085 C.ar      1 <0>        -0.0995
     24 C20         8.6889    0.9624   -3.4321 C.ar      1 <0>        -0.1233
     25 C21         7.8151    0.8459   -2.3677 C.ar      1 <0>         0.1279
     26 F1          8.0508    1.5204   -1.2211 F         1 <0>        -0.1152
     27 F2          7.0995   -1.2006   -5.8802 F         1 <0>        -0.1255
     28 C22         3.8560   -2.0617    0.8425 C.3       1 <0>        -0.1158
     29 C23         3.4895   -1.7788    2.3008 C.3       1 <0>        -0.1592
     30 C24         3.2482   -3.1010    3.0318 C.3       1 <0>        -0.0185
     31 N4          2.8964   -2.8294    4.4319 N.4       1 <0>        -0.6336
     32 H1         -0.9542    1.4535   -0.2672 H         1 <0>         0.1265
     33 H2          1.0490    2.8845   -0.3197 H         1 <0>         0.1247
     34 H3          3.2888    1.8734   -0.1643 H         1 <0>         0.1126
     35 H4          1.5225   -2.0003    0.0890 H         1 <0>         0.1228
     36 H5         -0.7173   -0.9893   -0.0679 H         1 <0>         0.1262
     37 H6          4.7620   -2.0142   -1.4866 H         1 <0>         0.1164
     38 H7          3.8102   -0.6277   -2.1059 H         1 <0>         0.1161
     39 H8          7.7122    1.6736    1.8246 H         1 <0>         0.0623
     40 H9          6.5216    1.7699    0.5015 H         1 <0>         0.1546
     41 H10         7.5608    3.9971    1.0597 H         1 <0>         0.0773
     42 H11         5.7919    3.9803    1.2620 H         1 <0>         0.0611
     43 H12         7.8309    3.5749    3.4974 H         1 <0>         0.0650
     44 H13         6.9232    5.0747    3.1908 H         1 <0>         0.0679
     45 H14         5.8286    3.7470    4.9652 H         1 <0>         0.0784
     46 H15         4.7895    3.8356    3.5221 H         1 <0>         0.0665
     47 H16         4.8171    1.5326    4.3287 H         1 <0>         0.0885
     48 H17         6.5995    1.5187    4.3229 H         1 <0>         0.0677
     49 H18         5.5810   -1.2994   -3.7634 H         1 <0>         0.1527
     50 H19         9.1297    0.3757   -5.4387 H         1 <0>         0.1554
     51 H20         9.5613    1.5933   -3.3464 H         1 <0>         0.1566
     52 H21         3.1026   -2.7123    0.3983 H         1 <0>         0.0919
     53 H22         4.8290   -2.5511    0.8008 H         1 <0>         0.0801
     54 H23         4.3060   -1.2409    2.7828 H         1 <0>         0.1192
     55 H24         2.5841   -1.1730    2.3370 H         1 <0>         0.1093
     56 H25         2.4317   -3.6388    2.5498 H         1 <0>         0.1262
     57 H26         4.1536   -3.7067    2.9956 H         1 <0>         0.1254
     58 H27         3.6521   -2.3315    4.8781 H         1 <0>         0.4345
     59 H28         2.0582   -2.2686    4.4654 H         1 <0>         0.4357
     60 H29         2.7372   -3.7014    4.9140 H         1 <0>         0.4341
@<TRIPOS>BOND
     1    1    6 ar
     2    1    2 ar
     3    1   32 1
     4    2    3 ar
     5    2   33 1
     6    3    4 ar
     7    3   34 1
     8    4    5 ar
     9    4    7 1
    10    5    6 ar
    11    5   35 1
    12    6   36 1
    13    7   11 1
    14    7    8 1
    15    7   28 1
    16    8    9 1
    17    8   37 1
    18    8   38 1
    19    9   10 2
    20    9   20 1
    21   10   11 1
    22   11   12 am
    23   12   13 2
    24   12   14 am
    25   14   19 1
    26   14   15 1
    27   15   16 1
    28   15   39 1
    29   15   40 1
    30   16   17 1
    31   16   41 1
    32   16   42 1
    33   17   18 1
    34   17   43 1
    35   17   44 1
    36   18   19 1
    37   18   45 1
    38   18   46 1
    39   19   47 1
    40   19   48 1
    41   20   25 ar
    42   20   21 ar
    43   21   22 ar
    44   21   49 1
    45   22   23 ar
    46   22   27 1
    47   23   24 ar
    48   23   50 1
    49   24   25 ar
    50   24   51 1
    51   25   26 1
    52   28   29 1
    53   28   52 1
    54   28   53 1
    55   29   30 1
    56   29   54 1
    57   29   55 1
    58   30   31 1
    59   30   56 1
    60   30   57 1
    61   31   58 1
    62   31   59 1
    63   31   60 1
@<TRIPOS>MOLECULE
CHEMBL382790
   57    60     0     0     0
SMALL
USER_CHARGES

@<TRIPOS>ATOM
      1 C1         -0.0341    1.3351   -0.0794 C.ar      1 <0>        -0.1070
      2 C2          1.1489    2.0490   -0.1219 C.ar      1 <0>        -0.1128
      3 C3          2.3597    1.3824   -0.0970 C.ar      1 <0>        -0.0930
      4 C4          2.3874    0.0020   -0.0292 C.ar      1 <0>        -0.0928
      5 C5          1.2044   -0.7118    0.0141 C.ar      1 <0>        -0.1065
      6 C6         -0.0064   -0.0453   -0.0121 C.ar      1 <0>        -0.1151
      7 C7          3.7073   -0.7248   -0.0031 C.3       1 <0>         0.2075
      8 C8          4.2557   -0.8022    1.4355 C.3       1 <0>        -0.1223
      9 C9          5.5659   -0.0507    1.3667 C.2       1 <0>         0.1218
     10 N1          5.7550    0.3757    0.1663 N.2       1 <0>        -0.2116
     11 N2          4.7356    0.0429   -0.7234 N.am      1 <0>        -0.4708
     12 C10         4.6977    0.3703   -2.0303 C.2       1 <0>         0.7529
     13 O1          3.7139    0.1072   -2.6947 O.2       1 <0>        -0.5578
     14 N3          5.7503    0.9893   -2.6007 N.am      1 <0>        -0.6220
     15 C11         6.9995    1.3588   -1.9191 C.3       1 <0>         0.1183
     16 C12         7.8967    2.0644   -2.9577 C.3       1 <0>        -0.1365
     17 C13         6.8781    2.5571   -4.0193 C.3       1 <0>        -0.1356
     18 C14         5.8423    1.4022   -4.0129 C.3       1 <0>         0.1217
     19 C15         6.4854    0.1618    2.4998 C.ar      1 <0>        -0.0436
     20 C16         6.1764   -0.3542    3.7605 C.ar      1 <0>        -0.1021
     21 C17         7.0425   -0.1517    4.8171 C.ar      1 <0>         0.0960
     22 C18         8.2159    0.5619    4.6288 C.ar      1 <0>        -0.1031
     23 C19         8.5281    1.0759    3.3837 C.ar      1 <0>        -0.1232
     24 C20         7.6738    0.8758    2.3159 C.ar      1 <0>         0.1248
     25 F1          7.9833    1.3736    1.0987 F         1 <0>        -0.1145
     26 F2          6.7452   -0.6500    6.0371 F         1 <0>        -0.1261
     27 C21         3.5614   -2.1246   -0.6033 C.3       1 <0>        -0.1196
     28 C22         4.9370   -2.7890   -0.6882 C.3       1 <0>        -0.1554
     29 C23         4.8093   -4.1366   -1.4013 C.3       1 <0>        -0.0067
     30 N4          6.1300   -4.7746   -1.4828 N.4       1 <0>        -0.6378
     31 H1         -0.9800    1.8561   -0.0943 H         1 <0>         0.1270
     32 H2          1.1272    3.1274   -0.1749 H         1 <0>         0.1245
     33 H3          3.2839    1.9400   -0.1309 H         1 <0>         0.1110
     34 H4          1.2261   -1.7903    0.0668 H         1 <0>         0.1221
     35 H5         -0.9306   -0.6030    0.0214 H         1 <0>         0.1274
     36 H6          3.5723   -0.3162    2.1319 H         1 <0>         0.1142
     37 H7          4.4245   -1.8394    1.7251 H         1 <0>         0.1086
     38 H8          6.7846    2.0369   -1.0932 H         1 <0>         0.0776
     39 H9          7.4973    0.4635   -1.5465 H         1 <0>         0.0645
     40 H10         8.4206    2.9067   -2.5059 H         1 <0>         0.0857
     41 H11         8.6032    1.3610   -3.3984 H         1 <0>         0.0750
     42 H12         6.4206    3.4983   -3.7145 H         1 <0>         0.0793
     43 H13         7.3487    2.6521   -4.9978 H         1 <0>         0.0896
     44 H14         6.1913    0.5732   -4.6286 H         1 <0>         0.0684
     45 H15         4.8753    1.7585   -4.3677 H         1 <0>         0.0811
     46 H16         5.2622   -0.9097    3.9087 H         1 <0>         0.1511
     47 H17         8.8893    0.7174    5.4587 H         1 <0>         0.1544
     48 H18         9.4438    1.6312    3.2443 H         1 <0>         0.1554
     49 H19         2.9065   -2.7244    0.0287 H         1 <0>         0.0963
     50 H20         3.1324   -2.0486   -1.6024 H         1 <0>         0.1002
     51 H21         5.6174   -2.1458   -1.2461 H         1 <0>         0.0864
     52 H22         5.3275   -2.9456    0.3174 H         1 <0>         0.0895
     53 H23         4.1288   -4.7799   -0.8434 H         1 <0>         0.1378
     54 H24         4.4188   -3.9800   -2.4068 H         1 <0>         0.1358
     55 H25         6.0458   -5.6633   -1.9531 H         1 <0>         0.4398
     56 H26         6.7599   -4.1791   -1.9992 H         1 <0>         0.4351
     57 H27         6.4915   -4.9196   -0.5520 H         1 <0>         0.4349
@<TRIPOS>BOND
     1    1    6 ar
     2    1    2 ar
     3    1   31 1
     4    2    3 ar
     5    2   32 1
     6    3    4 ar
     7    3   33 1
     8    4    5 ar
     9    4    7 1
    10    5    6 ar
    11    5   34 1
    12    6   35 1
    13    7   11 1
    14    7    8 1
    15    7   27 1
    16    8    9 1
    17    8   36 1
    18    8   37 1
    19    9   10 2
    20    9   19 1
    21   10   11 1
    22   11   12 am
    23   12   13 2
    24   12   14 am
    25   14   18 1
    26   14   15 1
    27   15   16 1
    28   15   38 1
    29   15   39 1
    30   16   17 1
    31   16   40 1
    32   16   41 1
    33   17   18 1
    34   17   42 1
    35   17   43 1
    36   18   44 1
    37   18   45 1
    38   19   24 ar
    39   19   20 ar
    40   20   21 ar
    41   20   46 1
    42   21   22 ar
    43   21   26 1
    44   22   23 ar
    45   22   47 1
    46   23   24 ar
    47   23   48 1
    48   24   25 1
    49   27   28 1
    50   27   49 1
    51   27   50 1
    52   28   29 1
    53   28   51 1
    54   28   52 1
    55   29   30 1
    56   29   53 1
    57   29   54 1
    58   30   55 1
    59   30   56 1
    60   30   57 1
@<TRIPOS>MOLECULE
CHEMBL382790__1
   57    60     0     0     0
SMALL
USER_CHARGES

@<TRIPOS>ATOM
      1 C1          0.0944    1.5046    0.5379 C.ar      1 <0>        -0.1068
      2 C2          1.3108    2.1602    0.4994 C.ar      1 <0>        -0.1125
      3 C3          2.4763    1.4435    0.3028 C.ar      1 <0>        -0.0968
      4 C4          2.4256    0.0711    0.1452 C.ar      1 <0>        -0.0953
      5 C5          1.2092   -0.5846    0.1845 C.ar      1 <0>        -0.1054
      6 C6          0.0436    0.1323    0.3797 C.ar      1 <0>        -0.1147
      7 C7          3.6961   -0.7102   -0.0701 C.3       1 <0>         0.2078
      8 C8          4.0850   -0.7132   -1.5618 C.3       1 <0>        -0.1222
      9 C9          5.4322   -0.0272   -1.5883 C.2       1 <0>         0.1200
     10 N1          5.7685    0.3072   -0.3910 N.2       1 <0>        -0.2103
     11 N2          4.8328   -0.0401    0.5814 N.am      1 <0>        -0.4706
     12 C10         4.9495    0.1991    1.9026 C.2       1 <0>         0.7551
     13 O1          4.1131   -0.2294    2.6743 O.2       1 <0>        -0.5618
     14 N3          5.9933    0.9132    2.3685 N.am      1 <0>        -0.6210
     15 C11         7.0682    1.4933    1.5501 C.3       1 <0>         0.1177
     16 C12         8.0487    2.1957    2.5128 C.3       1 <0>        -0.1375
     17 C13         7.7729    1.4892    3.8664 C.3       1 <0>        -0.1330
     18 C14         6.2429    1.2475    3.7825 C.3       1 <0>         0.1207
     19 C15         6.2372    0.2204   -2.7987 C.ar      1 <0>        -0.0435
     20 C16         5.7659   -0.1842   -4.0497 C.ar      1 <0>        -0.1023
     21 C17         6.5251    0.0515   -5.1793 C.ar      1 <0>         0.0958
     22 C18         7.7522    0.6874   -5.0734 C.ar      1 <0>        -0.1031
     23 C19         8.2253    1.0903   -3.8381 C.ar      1 <0>        -0.1233
     24 C20         7.4736    0.8667   -2.7002 C.ar      1 <0>         0.1249
     25 F1          7.9346    1.2664   -1.4948 F         1 <0>        -0.1144
     26 F2          6.0708   -0.3392   -6.3901 F         1 <0>        -0.1262
     27 C21         3.5423   -2.1399    0.4525 C.3       1 <0>        -0.1192
     28 C22         4.8843   -2.8676    0.3499 C.3       1 <0>        -0.1534
     29 C23         4.7055   -4.3286    0.7675 C.3       1 <0>        -0.0068
     30 N4          5.9939   -5.0272    0.6689 N.4       1 <0>        -0.6378
     31 H1         -0.8158    2.0640    0.6959 H         1 <0>         0.1275
     32 H2          1.3505    3.2324    0.6226 H         1 <0>         0.1250
     33 H3          3.4266    1.9557    0.2721 H         1 <0>         0.1116
     34 H4          1.1695   -1.6568    0.0610 H         1 <0>         0.1228
     35 H5         -0.9068   -0.3800    0.4101 H         1 <0>         0.1280
     36 H6          4.1687   -1.7346   -1.9331 H         1 <0>         0.1083
     37 H7          3.3579   -0.1508   -2.1476 H         1 <0>         0.1141
     38 H8          7.5856    0.7042    1.0045 H         1 <0>         0.0752
     39 H9          6.6516    2.2184    0.8510 H         1 <0>         0.0683
     40 H10         9.0798    2.0359    2.1974 H         1 <0>         0.0847
     41 H11         7.8258    3.2605    2.5811 H         1 <0>         0.0784
     42 H12         8.3175    0.5474    3.9336 H         1 <0>         0.0751
     43 H13         8.0183    2.1413    4.7046 H         1 <0>         0.0898
     44 H14         5.6981    2.1496    4.0609 H         1 <0>         0.0721
     45 H15         5.9548    0.4158    4.4255 H         1 <0>         0.0793
     46 H16         4.8104   -0.6804   -4.1336 H         1 <0>         0.1510
     47 H17         8.3417    0.8687   -5.9599 H         1 <0>         0.1544
     48 H18         9.1824    1.5850   -3.7630 H         1 <0>         0.1555
     49 H19         3.2221   -2.1135    1.4941 H         1 <0>         0.1037
     50 H20         2.7969   -2.6664   -0.1435 H         1 <0>         0.0939
     51 H21         5.2429   -2.8250   -0.6786 H         1 <0>         0.0874
     52 H22         5.6090   -2.3878    1.0076 H         1 <0>         0.0866
     53 H23         4.3468   -4.3712    1.7959 H         1 <0>         0.1365
     54 H24         3.9807   -4.8084    0.1098 H         1 <0>         0.1372
     55 H25         5.8760   -5.9907    0.9444 H         1 <0>         0.4396
     56 H26         6.3259   -4.9878   -0.2831 H         1 <0>         0.4346
     57 H27         6.6648   -4.5831    1.2778 H         1 <0>         0.4355
@<TRIPOS>BOND
     1    1    6 ar
     2    1    2 ar
     3    1   31 1
     4    2    3 ar
     5    2   32 1
     6    3    4 ar
     7    3   33 1
     8    4    5 ar
     9    4    7 1
    10    5    6 ar
    11    5   34 1
    12    6   35 1
    13    7   11 1
    14    7    8 1
    15    7   27 1
    16    8    9 1
    17    8   36 1
    18    8   37 1
    19    9   10 2
    20    9   19 1
    21   10   11 1
    22   11   12 am
    23   12   13 2
    24   12   14 am
    25   14   18 1
    26   14   15 1
    27   15   16 1
    28   15   38 1
    29   15   39 1
    30   16   17 1
    31   16   40 1
    32   16   41 1
    33   17   18 1
    34   17   42 1
    35   17   43 1
    36   18   44 1
    37   18   45 1
    38   19   24 ar
    39   19   20 ar
    40   20   21 ar
    41   20   46 1
    42   21   22 ar
    43   21   26 1
    44   22   23 ar
    45   22   47 1
    46   23   24 ar
    47   23   48 1
    48   24   25 1
    49   27   28 1
    50   27   49 1
    51   27   50 1
    52   28   29 1
    53   28   51 1
    54   28   52 1
    55   29   30 1
    56   29   53 1
    57   29   54 1
    58   30   55 1
    59   30   56 1
    60   30   57 1
@<TRIPOS>MOLECULE
CHEMBL392695
   47    49     0     0     0
SMALL
USER_CHARGES

@<TRIPOS>ATOM
      1 C1          0.6727    1.9762    0.4501 C.ar      1 <0>        -0.1059
      2 C2          2.0079    2.3324    0.4140 C.ar      1 <0>        -0.1181
      3 C3          2.9776    1.3624    0.2414 C.ar      1 <0>        -0.0891
      4 C4          2.6120    0.0362    0.1054 C.ar      1 <0>        -0.0966
      5 C5          1.2769   -0.3200    0.1424 C.ar      1 <0>        -0.1094
      6 C6          0.3072    0.6501    0.3135 C.ar      1 <0>        -0.1181
      7 C7          3.6691   -1.0211   -0.0838 C.3       1 <0>         0.1231
      8 C8          3.0140   -2.3749   -0.1792 C.ar      1 <0>        -0.0791
      9 C9          2.1403   -2.6486   -1.2149 C.ar      1 <0>        -0.0968
     10 C10         1.5394   -3.8904   -1.3024 C.ar      1 <0>        -0.1143
     11 C11         1.8125   -4.8587   -0.3545 C.ar      1 <0>        -0.1112
     12 C12         2.6869   -4.5854    0.6808 C.ar      1 <0>        -0.1138
     13 C13         3.2911   -3.3450    0.7659 C.ar      1 <0>        -0.1250
     14 C14         4.4360   -0.7437   -1.3510 C.ar      1 <0>        -0.0627
     15 C15         3.8270   -0.0718   -2.3944 C.ar      1 <0>        -0.0958
     16 C16         4.5304    0.1827   -3.5568 C.ar      1 <0>        -0.1158
     17 C17         5.8430   -0.2344   -3.6758 C.ar      1 <0>        -0.1111
     18 C18         6.4522   -0.9055   -2.6321 C.ar      1 <0>        -0.1163
     19 C19         5.7501   -1.1562   -1.4680 C.ar      1 <0>        -0.1026
     20 S1          4.8069   -0.9981    1.3288 S.3       1 <0>        -0.2445
     21 C20         3.7182   -1.1502    2.7718 C.3       1 <0>        -0.1130
     22 C21         4.5659   -1.2805    4.0388 C.3       1 <0>        -0.0273
     23 H1          5.1933   -0.3960    4.1487 H         1 <0>         0.1417
     24 C22         3.6614   -1.4069    5.2376 C.2       1 <0>         0.4940
     25 O1          3.2974   -2.5082    5.6132 O.co2     1 <0>        -0.6602
     26 O2          3.2936   -0.4078    5.8317 O.co2     1 <0>        -0.6274
     27 N1          5.4158   -2.4745    3.9387 N.4       1 <0>        -0.6159
     28 H2         -0.0846    2.7335    0.5894 H         1 <0>         0.1255
     29 H3          2.2935    3.3685    0.5203 H         1 <0>         0.1267
     30 H4          4.0207    1.6408    0.2125 H         1 <0>         0.1276
     31 H5          0.9913   -1.3561    0.0353 H         1 <0>         0.1310
     32 H6         -0.7360    0.3718    0.3420 H         1 <0>         0.1256
     33 H7          1.9270   -1.8920   -1.9555 H         1 <0>         0.1252
     34 H8          0.8563   -4.1039   -2.1112 H         1 <0>         0.1275
     35 H9          1.3425   -5.8287   -0.4224 H         1 <0>         0.1264
     36 H10         2.9000   -5.3418    1.4216 H         1 <0>         0.1271
     37 H11         3.9771   -3.1327    1.5725 H         1 <0>         0.1236
     38 H12         2.8015    0.2541   -2.3015 H         1 <0>         0.1247
     39 H13         4.0544    0.7070   -4.3723 H         1 <0>         0.1262
     40 H14         6.3923   -0.0362   -4.5843 H         1 <0>         0.1250
     41 H15         7.4776   -1.2317   -2.7252 H         1 <0>         0.1252
     42 H16         6.2273   -1.6773   -0.6512 H         1 <0>         0.1257
     43 H17         3.0875   -0.2643    2.8461 H         1 <0>         0.1249
     44 H18         3.0907   -2.0347    2.6619 H         1 <0>         0.1097
     45 H19         6.0214   -2.3899    3.1360 H         1 <0>         0.4177
     46 H20         5.9749   -2.5604    4.7742 H         1 <0>         0.4335
     47 H21         4.8350   -3.2932    3.8369 H         1 <0>         0.4323
@<TRIPOS>BOND
     1    1    6 ar
     2    1    2 ar
     3    1   28 1
     4    2    3 ar
     5    2   29 1
     6    3    4 ar
     7    3   30 1
     8    4    5 ar
     9    4    7 1
    10    5    6 ar
    11    5   31 1
    12    6   32 1
    13    7    8 1
    14    7   14 1
    15    7   20 1
    16    8   13 ar
    17    8    9 ar
    18    9   10 ar
    19    9   33 1
    20   10   11 ar
    21   10   34 1
    22   11   12 ar
    23   11   35 1
    24   12   13 ar
    25   12   36 1
    26   13   37 1
    27   14   19 ar
    28   14   15 ar
    29   15   16 ar
    30   15   38 1
    31   16   17 ar
    32   16   39 1
    33   17   18 ar
    34   17   40 1
    35   18   19 ar
    36   18   41 1
    37   19   42 1
    38   20   21 1
    39   21   22 1
    40   21   43 1
    41   21   44 1
    42   22   23 1
    43   22   24 1
    44   22   27 1
    45   24   25 2
    46   24   26 1
    47   27   45 1
    48   27   46 1
    49   27   47 1
@<TRIPOS>MOLECULE
CHEMBL470776
   31    32     0     0     0
SMALL
USER_CHARGES

@<TRIPOS>ATOM
      1 C1          0.0400    1.1533    0.0297 C.ar      1 <0>        -0.0610
      2 C2          1.1749    1.9341   -0.0082 C.ar      1 <0>        -0.1057
      3 C3          2.4311    1.3384    0.0176 C.ar      1 <0>         0.1364
      4 C4          2.5451   -0.0460    0.0822 C.ar      1 <0>        -0.1227
      5 C5          1.4128   -0.8306    0.1208 C.ar      1 <0>        -0.0855
      6 C6          0.1520   -0.2353    0.0945 C.ar      1 <0>        -0.0539
      7 C7         -1.0675   -1.0773    0.1360 C.ar      1 <0>         0.2010
      8 C8         -0.9478   -2.4643    0.2064 C.ar      1 <0>        -0.1651
      9 C9         -2.0950   -3.2368    0.2444 C.ar      1 <0>        -0.0178
     10 C10        -3.3265   -2.5969    0.2107 C.ar      1 <0>        -0.2445
     11 C11        -3.3719   -1.2172    0.1407 C.ar      1 <0>         0.1656
     12 N1         -2.2640   -0.5043    0.1111 N.ar      1 <0>        -0.4732
     13 C12        -4.6017   -3.3989    0.2495 C.3       1 <0>         0.5165
     14 F1         -4.9979   -3.5807    1.5789 F         1 <0>        -0.1727
     15 F2         -5.6042   -2.7149   -0.4465 F         1 <0>        -0.1727
     16 F3         -4.3869   -4.6456   -0.3477 F         1 <0>        -0.1744
     17 N2          3.5783    2.1305   -0.0219 N.pl3     1 <0>        -1.0692
     18 S1          4.0521    2.9692    1.3251 S.o2      1 <0>         2.7966
     19 O1          5.2468    3.6554    0.9769 O.2       1 <0>        -0.9757
     20 O2          2.8994    3.6443    1.8095 O.2       1 <0>        -0.9706
     21 N3          4.4658    1.8532    2.4765 N.pl3     1 <0>        -1.2589
     22 H1         -0.9355    1.6165    0.0138 H         1 <0>         0.1462
     23 H2          1.0886    3.0095   -0.0584 H         1 <0>         0.1421
     24 H3          3.5218   -0.5066    0.1018 H         1 <0>         0.1374
     25 H4          1.5019   -1.9057    0.1709 H         1 <0>         0.1371
     26 H5          0.0266   -2.9294    0.2307 H         1 <0>         0.1522
     27 H6         -2.0339   -4.3137    0.2987 H         1 <0>         0.1526
     28 H7         -4.3285   -0.7165    0.1139 H         1 <0>         0.1730
     29 H8          4.0987    2.1901   -0.8383 H         1 <0>         0.4295
     30 H9          4.4703    0.9084    2.2567 H         1 <0>         0.4145
     31 H10         4.7036    2.1442    3.3707 H         1 <0>         0.4231
@<TRIPOS>BOND
     1    1    6 ar
     2    1    2 ar
     3    1   22 1
     4    2    3 ar
     5    2   23 1
     6    3    4 ar
     7    3   17 1
     8    4    5 ar
     9    4   24 1
    10    5    6 ar
    11    5   25 1
    12    6    7 1
    13    7   12 ar
    14    7    8 ar
    15    8    9 ar
    16    8   26 1
    17    9   10 ar
    18    9   27 1
    19   10   11 ar
    20   10   13 1
    21   11   12 ar
    22   11   28 1
    23   13   14 1
    24   13   15 1
    25   13   16 1
    26   17   18 1
    27   17   29 1
    28   18   19 2
    29   18   20 2
    30   18   21 1
    31   21   30 1
    32   21   31 1
@<TRIPOS>MOLECULE
CHEMBL470776__1
   30    31     0     0     0
SMALL
USER_CHARGES

@<TRIPOS>ATOM
      1 C1         -0.0168    1.3903    0.0097 C.ar      1 <0>        -0.0200
      2 C2          1.1678    2.0946    0.0022 C.ar      1 <0>        -0.1944
      3 C3          2.3812    1.4158   -0.0135 C.ar      1 <0>         0.3139
      4 C4          2.4024    0.0254   -0.0212 C.ar      1 <0>        -0.2714
      5 C5          1.2202   -0.6828   -0.0133 C.ar      1 <0>        -0.0240
      6 C6          0.0021   -0.0041    0.0020 C.ar      1 <0>        -0.1941
      7 C7         -1.2709   -0.7638    0.0106 C.ar      1 <0>         0.2524
      8 C8         -1.2443   -2.1575    0.0086 C.ar      1 <0>        -0.1924
      9 C9         -2.4406   -2.8526    0.0167 C.ar      1 <0>        -0.0172
     10 C10        -3.6264   -2.1310    0.0265 C.ar      1 <0>        -0.2855
     11 C11        -3.5795   -0.7496    0.0279 C.ar      1 <0>         0.1687
     12 N1         -2.4264   -0.1116    0.0256 N.ar      1 <0>        -0.4938
     13 C12        -4.9524   -2.8470    0.0350 C.3       1 <0>         0.5195
     14 F1         -5.3531   -3.0707    1.3566 F         1 <0>        -0.1796
     15 F2         -5.9103   -2.0624   -0.6162 F         1 <0>        -0.1789
     16 F3         -4.8249   -4.0726   -0.6274 F         1 <0>        -0.1805
     17 N2          3.5788    2.1305   -0.0221 N.2       1 <0>        -1.0990
     18 S1          5.0247    1.3233   -0.0407 S.o2      1 <0>         2.7185
     19 O1          5.1234    0.6381    1.2002 O.2       1 <0>        -1.0530
     20 O2          5.0982    0.6506   -1.2903 O.2       1 <0>        -1.0529
     21 N3          6.2233    2.4659   -0.0471 N.pl3     1 <0>        -1.2505
     22 H1         -0.9591    1.9179    0.0260 H         1 <0>         0.1221
     23 H2          1.1536    3.1745    0.0081 H         1 <0>         0.1188
     24 H3          3.3460   -0.4998   -0.0338 H         1 <0>         0.1036
     25 H4          1.2371   -1.7626   -0.0192 H         1 <0>         0.1103
     26 H5         -0.3032   -2.6872    0.0005 H         1 <0>         0.1454
     27 H6         -2.4516   -3.9326    0.0150 H         1 <0>         0.1404
     28 H7         -4.5004   -0.1854    0.0352 H         1 <0>         0.1609
     29 H8          5.9948    3.4086   -0.0401 H         1 <0>         0.4097
     30 H9          7.1539    2.1926   -0.0579 H         1 <0>         0.4031
@<TRIPOS>BOND
     1    1    6 ar
     2    1    2 ar
     3    1   22 1
     4    2    3 ar
     5    2   23 1
     6    3    4 ar
     7    3   17 1
     8    4    5 ar
     9    4   24 1
    10    5    6 ar
    11    5   25 1
    12    6    7 1
    13    7   12 ar
    14    7    8 ar
    15    8    9 ar
    16    8   26 1
    17    9   10 ar
    18    9   27 1
    19   10   11 ar
    20   10   13 1
    21   11   12 ar
    22   11   28 1
    23   13   14 1
    24   13   15 1
    25   13   16 1
    26   17   18 1
    27   18   19 2
    28   18   20 2
    29   18   21 1
    30   21   29 1
    31   21   30 1
@<TRIPOS>MOLECULE
CHEMBL205437
   55    58     0     0     0
SMALL
USER_CHARGES

@<TRIPOS>ATOM
      1 C1         -0.0399    1.4609    0.0113 C.3       1 <0>         0.0584
      2 N1         -0.0044   -0.0037    0.0024 N.am      1 <0>        -0.6283
      3 C2          0.1369   -0.7407    1.2606 C.3       1 <0>         0.1497
      4 C3         -1.0322   -0.3982    2.1886 C.3       1 <0>        -0.1607
      5 C4         -0.8368   -1.1089    3.5296 C.3       1 <0>        -0.0027
      6 N2          0.4219   -0.6678    4.1425 N.4       1 <0>        -0.5064
      7 C5          1.5532   -1.0567    3.2920 C.3       1 <0>        -0.0024
      8 C6          1.4498   -0.3440    1.9418 C.3       1 <0>        -0.1620
      9 C7         -0.1016   -0.6730   -1.1634 C.2       1 <0>         0.7389
     10 O1         -0.1709   -1.8869   -1.1635 O.2       1 <0>        -0.5610
     11 N3         -0.1220    0.0032   -2.3291 N.am      1 <0>        -0.6235
     12 C8          0.0661    1.4479   -2.5191 C.3       1 <0>         0.1321
     13 C9         -0.0434    1.7221   -3.9958 C.2       1 <0>        -0.1137
     14 C10        -0.2706    0.5952   -4.6456 C.2       1 <0>        -0.1109
     15 C11        -0.3307   -0.5529   -3.6729 C.3       1 <0>         0.2236
     16 H1         -1.3082   -1.0320   -3.7281 H         1 <0>         0.0993
     17 C12         0.7520   -1.5527   -3.9877 C.ar      1 <0>        -0.0884
     18 C13         2.0563   -1.3027   -3.6041 C.ar      1 <0>        -0.0945
     19 C14         3.0495   -2.2198   -3.8929 C.ar      1 <0>        -0.1210
     20 C15         2.7383   -3.3871   -4.5649 C.ar      1 <0>        -0.1131
     21 C16         1.4339   -3.6374   -4.9477 C.ar      1 <0>        -0.1160
     22 C17         0.4399   -2.7223   -4.6551 C.ar      1 <0>        -0.1002
     23 C18         0.0839    3.0537   -4.6239 C.ar      1 <0>        -0.0459
     24 C19        -0.9548    3.9795   -4.5202 C.ar      1 <0>        -0.1108
     25 C20        -0.8293    5.2228   -5.1093 C.ar      1 <0>         0.0950
     26 C21         0.3249    5.5512   -5.8026 C.ar      1 <0>        -0.1154
     27 C22         1.3579    4.6384   -5.9090 C.ar      1 <0>        -0.1204
     28 C23         1.2473    3.3931   -5.3193 C.ar      1 <0>         0.1063
     29 F1          2.2596    2.5041   -5.4199 F         1 <0>        -0.1261
     30 F2         -1.8342    6.1204   -5.0098 F         1 <0>        -0.1296
     31 H2          0.8120    1.8484   -0.5474 H         1 <0>         0.0742
     32 H3         -0.9648    1.8047   -0.4517 H         1 <0>         0.0737
     33 H4          0.0066    1.8192    1.0397 H         1 <0>         0.0746
     34 H5          0.1408   -1.8115    1.0573 H         1 <0>         0.1206
     35 H6         -1.0658    0.6794    2.3493 H         1 <0>         0.0914
     36 H7         -1.9663   -0.7285    1.7344 H         1 <0>         0.1173
     37 H8         -1.6675   -0.8674    4.1927 H         1 <0>         0.1381
     38 H9         -0.8036   -2.1863    3.3679 H         1 <0>         0.1350
     39 H10         0.4103    0.3358    4.2470 H         1 <0>         0.4275
     40 H11         2.4869   -0.7766    3.7796 H         1 <0>         0.1380
     41 H12         1.5354   -2.1352    3.1353 H         1 <0>         0.1349
     42 H13         2.2897   -0.6354    1.3111 H         1 <0>         0.1162
     43 H14         1.4677    0.7347    2.0973 H         1 <0>         0.0915
     44 H15        -0.7076    1.9964   -1.9817 H         1 <0>         0.0913
     45 H16         1.0514    1.7440   -2.1590 H         1 <0>         0.0825
     46 H17        -0.3907    0.5091   -5.7154 H         1 <0>         0.1570
     47 H18         2.2995   -0.3908   -3.0791 H         1 <0>         0.1096
     48 H19         4.0687   -2.0242   -3.5939 H         1 <0>         0.1199
     49 H20         3.5144   -4.1032   -4.7912 H         1 <0>         0.1232
     50 H21         1.1908   -4.5492   -5.4730 H         1 <0>         0.1253
     51 H22        -0.5799   -2.9197   -4.9509 H         1 <0>         0.1229
     52 H23        -1.8551    3.7245   -3.9809 H         1 <0>         0.1473
     53 H24         0.4178    6.5242   -6.2619 H         1 <0>         0.1512
     54 H25         2.2548    4.9004   -6.4506 H         1 <0>         0.1521
     55 H26         0.5215   -1.0972    5.0501 H         1 <0>         0.4345
@<TRIPOS>BOND
     1    1    2 1
     2    1   31 1
     3    1   32 1
     4    1   33 1
     5    2    3 1
     6    2    9 am
     7    3    8 1
     8    3    4 1
     9    3   34 1
    10    4    5 1
    11    4   35 1
    12    4   36 1
    13    5    6 1
    14    5   37 1
    15    5   38 1
    16    6    7 1
    17    6   39 1
    18    6   55 1
    19    7    8 1
    20    7   40 1
    21    7   41 1
    22    8   42 1
    23    8   43 1
    24    9   10 2
    25    9   11 am
    26   11   15 1
    27   11   12 1
    28   12   13 1
    29   12   44 1
    30   12   45 1
    31   13   14 2
    32   13   23 1
    33   14   15 1
    34   14   46 1
    35   15   16 1
    36   15   17 1
    37   17   22 ar
    38   17   18 ar
    39   18   19 ar
    40   18   47 1
    41   19   20 ar
    42   19   48 1
    43   20   21 ar
    44   20   49 1
    45   21   22 ar
    46   21   50 1
    47   22   51 1
    48   23   28 ar
    49   23   24 ar
    50   24   25 ar
    51   24   52 1
    52   25   26 ar
    53   25   30 1
    54   26   27 ar
    55   26   53 1
    56   27   28 ar
    57   27   54 1
    58   28   29 1
@<TRIPOS>MOLECULE
CHEMBL1164477
   50    54     0     0     0
SMALL
USER_CHARGES

@<TRIPOS>ATOM
      1 C1          0.0059    1.3454    0.4086 C.ar      1 <0>        -0.1324
      2 C2          1.1890    2.0691    0.3451 C.ar      1 <0>        -0.0931
      3 C3          2.3960    1.4285    0.1715 C.ar      1 <0>        -0.1232
      4 C4          2.4326    0.0423    0.0588 C.ar      1 <0>         0.0991
      5 C5          1.2311   -0.6864    0.1243 C.ar      1 <0>        -0.0931
      6 C6          0.0187   -0.0164    0.3002 C.ar      1 <0>        -0.0834
      7 C7          1.6036   -2.0953   -0.0245 C.2       1 <0>        -0.1916
      8 C8          2.9381   -2.1358   -0.1640 C.2       1 <0>         0.0719
      9 N1          3.4507   -0.8680   -0.1167 N.pl3     1 <0>        -0.5901
     10 H1          4.3912   -0.6439   -0.1948 H         1 <0>         0.4200
     11 C9          0.6664   -3.2754   -0.0210 C.3       1 <0>         0.2938
     12 C10         0.3025   -3.6382    1.4014 C.2       1 <0>         0.0749
     13 C11         0.7596   -4.7434    2.0288 C.2       1 <0>        -0.1621
     14 C12         0.1956   -4.7357    3.3636 C.ar      1 <0>        -0.0914
     15 C13         0.3144   -5.6110    4.4476 C.ar      1 <0>        -0.0588
     16 C14        -0.3785   -5.2843    5.5881 C.ar      1 <0>        -0.0559
     17 C15        -1.1615   -4.1434    5.6723 C.ar      1 <0>        -0.0901
     18 C16        -1.2958   -3.2605    4.6149 C.ar      1 <0>        -0.1106
     19 C17        -0.6038   -3.5668    3.4450 C.ar      1 <0>         0.1061
     20 N2         -0.5152   -2.9294    2.2405 N.pl3     1 <0>        -0.5688
     21 H2         -0.9641   -2.1000    2.0135 H         1 <0>         0.4189
     22 Cl1        -0.2707   -6.3334    6.9670 Cl        1 <0>        -0.0721
     23 C18         1.6778   -5.7657    1.4092 C.3       1 <0>        -0.0591
     24 C19         2.3494   -5.1503    0.1757 C.3       1 <0>         0.0951
     25 N3          1.3325   -4.4449   -0.6195 N.am      1 <0>        -0.5936
     26 C20         1.0186   -4.8576   -1.8636 C.2       1 <0>         0.5273
     27 O1          0.1780   -4.2640   -2.5054 O.2       1 <0>        -0.5242
     28 C21         1.7122   -6.0567   -2.4571 C.3       1 <0>        -0.1763
     29 C22         1.1757   -6.3098   -3.8674 C.3       1 <0>         0.0056
     30 N4          1.8518   -7.4786   -4.4460 N.4       1 <0>        -0.6367
     31 H3         -0.9316    1.8628    0.5493 H         1 <0>         0.1274
     32 H4          1.1627    3.1453    0.4323 H         1 <0>         0.1309
     33 H5          3.3108    2.0004    0.1226 H         1 <0>         0.1245
     34 H6         -0.9055   -0.5729    0.3509 H         1 <0>         0.1149
     35 H7          3.5208   -3.0357   -0.2945 H         1 <0>         0.1673
     36 H8         -0.2347   -3.0340   -0.5847 H         1 <0>         0.1189
     37 H9          0.9219   -6.5022    4.3908 H         1 <0>         0.1397
     38 H10        -1.6848   -3.9366    6.5941 H         1 <0>         0.1362
     39 H11        -1.9085   -2.3746    4.6932 H         1 <0>         0.1403
     40 H12         2.4397   -6.0574    2.1320 H         1 <0>         0.0919
     41 H13         1.1009   -6.6414    1.1116 H         1 <0>         0.0773
     42 H14         3.1187   -4.4460    0.4924 H         1 <0>         0.0877
     43 H15         2.8003   -5.9393   -0.4261 H         1 <0>         0.0920
     44 H16         2.7849   -5.8693   -2.5047 H         1 <0>         0.1201
     45 H17         1.5233   -6.9309   -1.8342 H         1 <0>         0.1219
     46 H18         0.1030   -6.4972   -3.8199 H         1 <0>         0.1444
     47 H19         1.3646   -5.4355   -4.4904 H         1 <0>         0.1439
     48 H20         1.6770   -8.2879   -3.8694 H         1 <0>         0.4358
     49 H21         1.4980   -7.6456   -5.3761 H         1 <0>         0.4436
     50 H22         2.8448   -7.3052   -4.4900 H         1 <0>         0.4352
@<TRIPOS>BOND
     1    1    6 ar
     2    1    2 ar
     3    1   31 1
     4    2    3 ar
     5    2   32 1
     6    3    4 ar
     7    3   33 1
     8    4    9 1
     9    4    5 ar
    10    5    6 ar
    11    5    7 1
    12    6   34 1
    13    7    8 2
    14    7   11 1
    15    8    9 1
    16    8   35 1
    17    9   10 1
    18   11   25 1
    19   11   12 1
    20   11   36 1
    21   12   20 1
    22   12   13 2
    23   13   14 1
    24   13   23 1
    25   14   19 ar
    26   14   15 ar
    27   15   16 ar
    28   15   37 1
    29   16   17 ar
    30   16   22 1
    31   17   18 ar
    32   17   38 1
    33   18   19 ar
    34   18   39 1
    35   19   20 1
    36   20   21 1
    37   23   24 1
    38   23   40 1
    39   23   41 1
    40   24   25 1
    41   24   42 1
    42   24   43 1
    43   25   26 am
    44   26   27 2
    45   26   28 1
    46   28   29 1
    47   28   44 1
    48   28   45 1
    49   29   30 1
    50   29   46 1
    51   29   47 1
    52   30   48 1
    53   30   49 1
    54   30   50 1
@<TRIPOS>MOLECULE
CHEMBL1164477__1
   50    54     0     0     0
SMALL
USER_CHARGES

@<TRIPOS>ATOM
      1 C1         -0.0163    1.3616   -0.0892 C.ar      1 <0>        -0.1324
      2 C2          1.1698    2.0831   -0.0828 C.ar      1 <0>        -0.0930
      3 C3          2.3856    1.4361   -0.0591 C.ar      1 <0>        -0.1232
      4 C4          2.4281    0.0456   -0.0410 C.ar      1 <0>         0.0991
      5 C5          1.2235   -0.6808   -0.0472 C.ar      1 <0>        -0.0931
      6 C6          0.0022   -0.0044   -0.0718 C.ar      1 <0>        -0.0834
      7 C7          1.6036   -2.0953   -0.0245 C.2       1 <0>        -0.1916
      8 C8          2.9451   -2.1409   -0.0068 C.2       1 <0>         0.0719
      9 N1          3.4551   -0.8712   -0.0164 N.pl3     1 <0>        -0.5901
     10 H1          4.3994   -0.6499   -0.0069 H         1 <0>         0.4200
     11 C9          0.6664   -3.2754   -0.0210 C.3       1 <0>         0.2939
     12 C10         0.1767   -3.5466   -1.4260 C.2       1 <0>         0.0748
     13 C11         0.5732   -4.6076   -2.1616 C.2       1 <0>        -0.1621
     14 C12        -0.1062   -4.5148   -3.4382 C.ar      1 <0>        -0.0914
     15 C13        -0.0859   -5.3175   -4.5830 C.ar      1 <0>        -0.0587
     16 C14        -0.8754   -4.9191   -5.6345 C.ar      1 <0>        -0.0559
     17 C15        -1.6588   -3.7769   -5.5754 C.ar      1 <0>        -0.0901
     18 C16        -1.6964   -2.9647   -4.4554 C.ar      1 <0>        -0.1106
     19 C17        -0.9059   -3.3452   -3.3728 C.ar      1 <0>         0.1061
     20 N2         -0.7095   -2.7870   -2.1420 N.pl3     1 <0>        -0.5688
     21 H2         -1.1341   -1.9753   -1.8230 H         1 <0>         0.4189
     22 Cl1        -0.8920   -5.8758   -7.0830 Cl        1 <0>        -0.0721
     23 C18         1.5392   -5.6656   -1.6929 C.3       1 <0>        -0.0591
     24 C19         2.3190   -5.1297   -0.4862 C.3       1 <0>         0.0950
     25 N3          1.3796   -4.4792    0.4392 N.am      1 <0>        -0.5934
     26 C20         1.1764   -4.9721    1.6770 C.2       1 <0>         0.5272
     27 O1          0.3980   -4.4234    2.4280 O.2       1 <0>        -0.5242
     28 C21         1.9164   -6.2050    2.1280 C.3       1 <0>        -0.1763
     29 C22         1.5067   -6.5500    3.5612 C.3       1 <0>         0.0056
     30 N4          2.2281   -7.7518    4.0009 N.4       1 <0>        -0.6367
     31 H3         -0.9613    1.8844   -0.1036 H         1 <0>         0.1274
     32 H4          1.1389    3.1626   -0.0968 H         1 <0>         0.1309
     33 H5          3.3028    2.0062   -0.0551 H         1 <0>         0.1245
     34 H6         -0.9245   -0.5590   -0.0766 H         1 <0>         0.1150
     35 H7          3.5345   -3.0457    0.0118 H         1 <0>         0.1673
     36 H8         -0.1805   -3.0735    0.6347 H         1 <0>         0.1189
     37 H9          0.5219   -6.2085   -4.6382 H         1 <0>         0.1397
     38 H10        -2.2599   -3.5116   -6.4325 H         1 <0>         0.1362
     39 H11        -2.3103   -2.0768   -4.4220 H         1 <0>         0.1403
     40 H12         0.9881   -6.5602   -1.4031 H         1 <0>         0.0774
     41 H13         2.2336   -5.9078   -2.4975 H         1 <0>         0.0919
     42 H14         2.8186   -5.9549    0.0211 H         1 <0>         0.0920
     43 H15         3.0596   -4.4044   -0.8232 H         1 <0>         0.0875
     44 H16         1.6702   -7.0378    1.4693 H         1 <0>         0.1219
     45 H17         2.9897   -6.0181    2.0919 H         1 <0>         0.1201
     46 H18         1.7529   -5.7172    4.2200 H         1 <0>         0.1439
     47 H19         0.4335   -6.7369    3.5974 H         1 <0>         0.1444
     48 H20         3.2216   -7.5788    3.9674 H         1 <0>         0.4352
     49 H21         1.9580   -7.9793    4.9460 H         1 <0>         0.4436
     50 H22         2.0003   -8.5227    3.3911 H         1 <0>         0.4358
@<TRIPOS>BOND
     1    1    6 ar
     2    1    2 ar
     3    1   31 1
     4    2    3 ar
     5    2   32 1
     6    3    4 ar
     7    3   33 1
     8    4    9 1
     9    4    5 ar
    10    5    6 ar
    11    5    7 1
    12    6   34 1
    13    7    8 2
    14    7   11 1
    15    8    9 1
    16    8   35 1
    17    9   10 1
    18   11   25 1
    19   11   12 1
    20   11   36 1
    21   12   20 1
    22   12   13 2
    23   13   14 1
    24   13   23 1
    25   14   19 ar
    26   14   15 ar
    27   15   16 ar
    28   15   37 1
    29   16   17 ar
    30   16   22 1
    31   17   18 ar
    32   17   38 1
    33   18   19 ar
    34   18   39 1
    35   19   20 1
    36   20   21 1
    37   23   24 1
    38   23   40 1
    39   23   41 1
    40   24   25 1
    41   24   42 1
    42   24   43 1
    43   25   26 am
    44   26   27 2
    45   26   28 1
    46   28   29 1
    47   28   44 1
    48   28   45 1
    49   29   30 1
    50   29   46 1
    51   29   47 1
    52   30   48 1
    53   30   49 1
    54   30   50 1
@<TRIPOS>MOLECULE
CHEMBL590855
   57    61     0     0     0
SMALL
USER_CHARGES

@<TRIPOS>ATOM
      1 C1          0.0202    1.3197    0.3970 C.ar      1 <0>        -0.1004
      2 C2          1.2075    2.0287    0.3883 C.ar      1 <0>        -0.1108
      3 C3          2.3791    1.4145   -0.0130 C.ar      1 <0>        -0.0927
      4 C4          2.3665    0.0903   -0.4071 C.ar      1 <0>        -0.1271
      5 C5          1.1769   -0.6230   -0.3993 C.ar      1 <0>         0.1093
      6 C6          0.0023   -0.0044    0.0043 C.ar      1 <0>        -0.1334
      7 O1          1.1618   -1.9256   -0.7865 O.3       1 <0>        -0.4975
      8 C7          3.6712    2.1901   -0.0212 C.3       1 <0>         0.2560
      9 C8          3.9110    2.8029    1.3405 C.2       1 <0>         0.0660
     10 C9          3.7986    4.1250    1.5930 C.2       1 <0>        -0.1529
     11 C10         4.0994    4.3143    2.9978 C.ar      1 <0>        -0.0931
     12 C11         4.1395    5.4492    3.8137 C.ar      1 <0>        -0.0564
     13 C12         4.4722    5.2542    5.1325 C.ar      1 <0>        -0.0567
     14 C13         4.7564    3.9965    5.6417 C.ar      1 <0>        -0.0891
     15 C14         4.7234    2.8574    4.8563 C.ar      1 <0>        -0.1120
     16 C15         4.3888    3.0253    3.5142 C.ar      1 <0>         0.1070
     17 N1          4.2655    2.1377    2.4837 N.pl3     1 <0>        -0.5717
     18 H1          4.4079    1.1806    2.5513 H         1 <0>         0.4197
     19 Cl1         4.5391    6.6259    6.1943 Cl        1 <0>        -0.0716
     20 C16         3.4324    5.1676    0.5679 C.3       1 <0>        -0.0622
     21 C17         2.7876    4.4756   -0.6390 C.3       1 <0>         0.0928
     22 N2          3.5866    3.2927   -0.9942 N.am      1 <0>        -0.5949
     23 C18         4.2245    3.2193   -2.1792 C.2       1 <0>         0.5229
     24 O2          4.8787    2.2362   -2.4558 O.2       1 <0>        -0.5377
     25 C19         4.1249    4.3587   -3.1604 C.3       1 <0>        -0.1383
     26 C20         4.9345    4.0239   -4.4147 C.3       1 <0>        -0.0858
     27 C21         6.4211    3.9385   -4.0569 C.3       1 <0>        -0.1507
     28 C22         7.2323    3.6823   -5.3289 C.3       1 <0>        -0.0052
     29 N3          7.0186    4.7802   -6.2793 N.4       1 <0>        -0.5061
     30 C23         5.6077    4.8228   -6.6820 C.3       1 <0>        -0.0057
     31 C24         4.7340    5.1229   -5.4622 C.3       1 <0>        -0.1452
     32 H2         -0.8930    1.8005    0.7152 H         1 <0>         0.1323
     33 H3          1.2193    3.0641    0.6953 H         1 <0>         0.1298
     34 H4          3.2819   -0.3889   -0.7212 H         1 <0>         0.1303
     35 H5         -0.9251   -0.5578    0.0115 H         1 <0>         0.1334
     36 H6          1.3124   -2.5520   -0.0654 H         1 <0>         0.3951
     37 H7          4.4979    1.5292   -0.2816 H         1 <0>         0.1181
     38 H8          3.9198    6.4328    3.4255 H         1 <0>         0.1407
     39 H9          5.0126    3.9025    6.6866 H         1 <0>         0.1362
     40 H10         4.9464    1.8829    5.2651 H         1 <0>         0.1400
     41 H11         2.7263    5.8748    1.0031 H         1 <0>         0.0920
     42 H12         4.3304    5.6964    0.2484 H         1 <0>         0.0779
     43 H13         1.7732    4.1684   -0.3845 H         1 <0>         0.0890
     44 H14         2.7608    5.1645   -1.4833 H         1 <0>         0.0955
     45 H15         3.0808    4.5136   -3.4325 H         1 <0>         0.1074
     46 H16         4.5200    5.2665   -2.7044 H         1 <0>         0.1033
     47 H17         4.6005    3.0688   -4.8199 H         1 <0>         0.0990
     48 H18         6.7410    4.8769   -3.6041 H         1 <0>         0.0842
     49 H19         6.5798    3.1213   -3.3533 H         1 <0>         0.1285
     50 H20         8.2912    3.6208   -5.0777 H         1 <0>         0.1325
     51 H21         6.9118    2.7436   -5.7807 H         1 <0>         0.1311
     52 H22         7.2693    5.6549   -5.8432 H         1 <0>         0.4269
     53 H23         5.4672    5.6033   -7.4299 H         1 <0>         0.1340
     54 H24         5.3219    3.8598   -7.1051 H         1 <0>         0.1308
     55 H25         3.6867    5.1523   -5.7629 H         1 <0>         0.1137
     56 H26         5.0188    6.0859   -5.0385 H         1 <0>         0.0907
     57 H27         7.5957    4.6354   -7.0942 H         1 <0>         0.4313
@<TRIPOS>BOND
     1    1    6 ar
     2    1    2 ar
     3    1   32 1
     4    2    3 ar
     5    2   33 1
     6    3    4 ar
     7    3    8 1
     8    4    5 ar
     9    4   34 1
    10    5    6 ar
    11    5    7 1
    12    6   35 1
    13    7   36 1
    14    8   22 1
    15    8    9 1
    16    8   37 1
    17    9   17 1
    18    9   10 2
    19   10   11 1
    20   10   20 1
    21   11   16 ar
    22   11   12 ar
    23   12   13 ar
    24   12   38 1
    25   13   14 ar
    26   13   19 1
    27   14   15 ar
    28   14   39 1
    29   15   16 ar
    30   15   40 1
    31   16   17 1
    32   17   18 1
    33   20   21 1
    34   20   41 1
    35   20   42 1
    36   21   22 1
    37   21   43 1
    38   21   44 1
    39   22   23 am
    40   23   24 2
    41   23   25 1
    42   25   26 1
    43   25   45 1
    44   25   46 1
    45   26   31 1
    46   26   27 1
    47   26   47 1
    48   27   28 1
    49   27   48 1
    50   27   49 1
    51   28   29 1
    52   28   50 1
    53   28   51 1
    54   29   30 1
    55   29   52 1
    56   29   57 1
    57   30   31 1
    58   30   53 1
    59   30   54 1
    60   31   55 1
    61   31   56 1
@<TRIPOS>MOLECULE
CHEMBL590855__1
   57    61     0     0     0
SMALL
USER_CHARGES

@<TRIPOS>ATOM
      1 C1          0.0542    1.2529   -0.5699 C.ar      1 <0>        -0.1003
      2 C2          1.2413    1.9621   -0.5758 C.ar      1 <0>        -0.1106
      3 C3          2.3791    1.4145   -0.0130 C.ar      1 <0>        -0.0910
      4 C4          2.3328    0.1565    0.5565 C.ar      1 <0>        -0.1275
      5 C5          1.1432   -0.5568    0.5637 C.ar      1 <0>         0.1084
      6 C6          0.0025   -0.0048   -0.0014 C.ar      1 <0>        -0.1340
      7 O1          1.0951   -1.7944    1.1232 O.3       1 <0>        -0.4957
      8 C7          3.6712    2.1901   -0.0212 C.3       1 <0>         0.2556
      9 C8          4.0094    2.6098   -1.4342 C.2       1 <0>         0.0645
     10 C9          3.9216    3.8836   -1.8746 C.2       1 <0>        -0.1526
     11 C10         4.3208    3.8780   -3.2676 C.ar      1 <0>        -0.0933
     12 C11         4.4232    4.8891   -4.2280 C.ar      1 <0>        -0.0562
     13 C12         4.8458    4.5149   -5.4807 C.ar      1 <0>        -0.0567
     14 C13         5.1582    3.2001   -5.7898 C.ar      1 <0>        -0.0889
     15 C14         5.0646    2.1805   -4.8586 C.ar      1 <0>        -0.1119
     16 C15         4.6392    2.5313   -3.5790 C.ar      1 <0>         0.1075
     17 N1          4.4396    1.7943   -2.4467 N.pl3     1 <0>        -0.5715
     18 H1          4.5817    0.8378   -2.3710 H         1 <0>         0.4202
     19 Cl1         4.9927    5.7265   -6.7152 Cl        1 <0>        -0.0718
     20 C16         3.4898    5.0564   -1.0318 C.3       1 <0>        -0.0633
     21 C17         2.7588    4.5351    0.2112 C.3       1 <0>         0.0933
     22 N2          3.5237    3.4163    0.7814 N.am      1 <0>        -0.5943
     23 C18         4.0757    3.5106    2.0073 C.2       1 <0>         0.5227
     24 O2          4.7036    2.5784    2.4630 O.2       1 <0>        -0.5384
     25 C19         3.9127    4.7744    2.8120 C.3       1 <0>        -0.1383
     26 C20         4.6298    4.6201    4.1547 C.3       1 <0>        -0.0857
     27 C21         3.9392    3.5322    4.9821 C.3       1 <0>        -0.1506
     28 C22         4.6113    3.4384    6.3536 C.3       1 <0>        -0.0053
     29 N3          4.4993    4.7274    7.0466 N.4       1 <0>        -0.5061
     30 C23         5.2207    5.7614    6.2949 C.3       1 <0>        -0.0058
     31 C24         4.5720    5.9446    4.9212 C.3       1 <0>        -0.1453
     32 H2         -0.8344    1.6848   -1.0061 H         1 <0>         0.1323
     33 H3          1.2798    2.9453   -1.0211 H         1 <0>         0.1302
     34 H4          3.2221   -0.2711    0.9954 H         1 <0>         0.1304
     35 H5         -0.9250   -0.5581    0.0032 H         1 <0>         0.1332
     36 H6          0.8698   -1.7923    2.0636 H         1 <0>         0.3927
     37 H7          4.4742    1.5756    0.3858 H         1 <0>         0.1185
     38 H8          4.1812    5.9158   -3.9962 H         1 <0>         0.1408
     39 H9          5.4854    2.9634   -6.7915 H         1 <0>         0.1362
     40 H10         5.3100    1.1598   -5.1122 H         1 <0>         0.1402
     41 H11         4.3660    5.6285   -0.7266 H         1 <0>         0.0792
     42 H12         2.8194    5.6932   -1.6091 H         1 <0>         0.0921
     43 H13         2.6765    5.3341    0.9480 H         1 <0>         0.0952
     44 H14         1.7631    4.1908   -0.0686 H         1 <0>         0.0886
     45 H15         4.3438    5.6121    2.2639 H         1 <0>         0.1081
     46 H16         2.8528    4.9605    2.9854 H         1 <0>         0.1025
     47 H17         5.6701    4.3436    3.9826 H         1 <0>         0.0991
     48 H18         2.8865    3.7848    5.1092 H         1 <0>         0.0837
     49 H19         4.0249    2.5747    4.4684 H         1 <0>         0.1286
     50 H20         4.1221    2.6646    6.9452 H         1 <0>         0.1323
     51 H21         5.6638    3.1855    6.2254 H         1 <0>         0.1312
     52 H22         3.5265    4.9845    7.1215 H         1 <0>         0.4267
     53 H23         5.1814    6.7026    6.8432 H         1 <0>         0.1341
     54 H24         6.2602    5.4590    6.1679 H         1 <0>         0.1310
     55 H25         5.1102    6.7114    4.3639 H         1 <0>         0.1140
     56 H26         3.5325    6.2473    5.0470 H         1 <0>         0.0905
     57 H27         4.8958    4.6467    7.9709 H         1 <0>         0.4314
@<TRIPOS>BOND
     1    1    6 ar
     2    1    2 ar
     3    1   32 1
     4    2    3 ar
     5    2   33 1
     6    3    4 ar
     7    3    8 1
     8    4    5 ar
     9    4   34 1
    10    5    6 ar
    11    5    7 1
    12    6   35 1
    13    7   36 1
    14    8   22 1
    15    8    9 1
    16    8   37 1
    17    9   17 1
    18    9   10 2
    19   10   11 1
    20   10   20 1
    21   11   16 ar
    22   11   12 ar
    23   12   13 ar
    24   12   38 1
    25   13   14 ar
    26   13   19 1
    27   14   15 ar
    28   14   39 1
    29   15   16 ar
    30   15   40 1
    31   16   17 1
    32   17   18 1
    33   20   21 1
    34   20   41 1
    35   20   42 1
    36   21   22 1
    37   21   43 1
    38   21   44 1
    39   22   23 am
    40   23   24 2
    41   23   25 1
    42   25   26 1
    43   25   45 1
    44   25   46 1
    45   26   31 1
    46   26   27 1
    47   26   47 1
    48   27   28 1
    49   27   48 1
    50   27   49 1
    51   28   29 1
    52   28   50 1
    53   28   51 1
    54   29   30 1
    55   29   52 1
    56   29   57 1
    57   30   31 1
    58   30   53 1
    59   30   54 1
    60   31   55 1
    61   31   56 1
@<TRIPOS>MOLECULE
CHEMBL382364
   42    44     0     0     0
SMALL
USER_CHARGES

@<TRIPOS>ATOM
      1 C1         -2.4202    1.3279    0.1496 C.3       1 <0>         0.1061
      2 N1         -2.2812   -0.1239    0.2881 N.am      1 <0>        -0.6382
      3 C2         -3.4220   -0.9303    0.7292 C.3       1 <0>         0.0707
      4 C3         -1.1038   -0.7178    0.0096 C.2       1 <0>         0.7158
      5 O1         -0.0981   -0.0456   -0.1141 O.2       1 <0>        -0.5751
      6 N2         -1.0410   -2.0566   -0.1317 N.am      1 <0>        -0.6317
      7 C4          0.2309   -2.7774   -0.0128 C.3       1 <0>         0.1700
      8 C5          0.3444   -3.7935   -1.1214 C.ar      1 <0>        -0.0845
      9 C6          1.5770   -4.4010   -1.3193 C.ar      1 <0>        -0.0784
     10 C7          1.7407   -5.3466   -2.3111 C.ar      1 <0>        -0.0948
     11 C8          0.6677   -5.6918   -3.1129 C.ar      1 <0>        -0.0848
     12 C9         -0.5557   -5.0856   -2.9197 C.ar      1 <0>        -0.1030
     13 C10        -0.7218   -4.1288   -1.9253 C.ar      1 <0>        -0.0469
     14 C11        -2.0791   -3.4905   -1.7906 C.3       1 <0>        -0.0236
     15 C12        -2.2474   -2.8549   -0.4055 C.3       1 <0>         0.0817
     16 C13        -3.1423   -4.5409   -1.9842 C.ar      1 <0>        -0.0619
     17 C14        -3.2000   -5.6302   -1.1343 C.ar      1 <0>        -0.1157
     18 C15        -4.1740   -6.5955   -1.3093 C.ar      1 <0>        -0.0978
     19 C16        -5.0923   -6.4742   -2.3345 C.ar      1 <0>        -0.1437
     20 C17        -5.0365   -5.3824   -3.1883 C.ar      1 <0>         0.1094
     21 C18        -4.0617   -4.4118   -3.0068 C.ar      1 <0>        -0.1393
     22 O2         -5.9386   -5.2608   -4.1974 O.3       1 <0>        -0.4989
     23 I1          3.6061   -6.2548   -2.6014 I         1 <0>        -0.0386
     24 H1         -3.4350    1.6228    0.4165 H         1 <0>         0.0769
     25 H2         -1.7113    1.8255    0.8113 H         1 <0>         0.0637
     26 H3         -2.2177    1.6155   -0.8821 H         1 <0>         0.0587
     27 H4         -4.0522   -1.1677   -0.1279 H         1 <0>         0.0636
     28 H5         -3.0608   -1.8538    1.1816 H         1 <0>         0.0808
     29 H6         -4.0017   -0.3692    1.4621 H         1 <0>         0.0732
     30 H7          1.0569   -2.0697   -0.0835 H         1 <0>         0.1071
     31 H8          0.2711   -3.2857    0.9506 H         1 <0>         0.0816
     32 H9          2.4140   -4.1317   -0.6921 H         1 <0>         0.1323
     33 H10         0.7876   -6.4343   -3.8880 H         1 <0>         0.1302
     34 H11        -1.3923   -5.3565   -3.5467 H         1 <0>         0.1301
     35 H12        -2.1916   -2.7224   -2.5558 H         1 <0>         0.0968
     36 H13        -2.3536   -3.6336    0.3497 H         1 <0>         0.0792
     37 H14        -3.1261   -2.2100   -0.3972 H         1 <0>         0.1254
     38 H15        -2.4827   -5.7273   -0.3328 H         1 <0>         0.1240
     39 H16        -4.2170   -7.4454   -0.6442 H         1 <0>         0.1288
     40 H17        -5.8526   -7.2289   -2.4712 H         1 <0>         0.1293
     41 H18        -4.0191   -3.5584   -3.6674 H         1 <0>         0.1289
     42 H19        -6.7400   -4.7781   -3.9525 H         1 <0>         0.3923
@<TRIPOS>BOND
     1    1    2 1
     2    1   24 1
     3    1   25 1
     4    1   26 1
     5    2    3 1
     6    2    4 am
     7    3   27 1
     8    3   28 1
     9    3   29 1
    10    4    5 2
    11    4    6 am
    12    6   15 1
    13    6    7 1
    14    7    8 1
    15    7   30 1
    16    7   31 1
    17    8   13 ar
    18    8    9 ar
    19    9   10 ar
    20    9   32 1
    21   10   11 ar
    22   10   23 1
    23   11   12 ar
    24   11   33 1
    25   12   13 ar
    26   12   34 1
    27   13   14 1
    28   14   15 1
    29   14   16 1
    30   14   35 1
    31   15   36 1
    32   15   37 1
    33   16   21 ar
    34   16   17 ar
    35   17   18 ar
    36   17   38 1
    37   18   19 ar
    38   18   39 1
    39   19   20 ar
    40   19   40 1
    41   20   21 ar
    42   20   22 1
    43   21   41 1
    44   22   42 1
@<TRIPOS>MOLECULE
CHEMBL382364__1
   42    44     0     0     0
SMALL
USER_CHARGES

@<TRIPOS>ATOM
      1 C1         -0.0156    1.4646   -0.1510 C.3       1 <0>         0.1067
      2 N1          0.0056    0.0003   -0.1915 N.am      1 <0>        -0.6371
      3 C2          1.2537   -0.7062   -0.4902 C.3       1 <0>         0.0617
      4 C3         -1.1231   -0.6968    0.0461 C.2       1 <0>         0.7149
      5 O1         -2.1901   -0.1188    0.1221 O.2       1 <0>        -0.5762
      6 N2         -1.0691   -2.0348    0.1994 N.am      1 <0>        -0.6306
      7 C4          0.2050   -2.7260    0.4235 C.3       1 <0>         0.1236
      8 C5          0.0431   -3.7459    1.5226 C.ar      1 <0>        -0.0926
      9 C6          1.1924   -4.3266    2.0415 C.ar      1 <0>        -0.0793
     10 C7          1.1083   -5.2736    3.0421 C.ar      1 <0>        -0.0965
     11 C8         -0.1311   -5.6475    3.5295 C.ar      1 <0>        -0.0835
     12 C9         -1.2727   -5.0685    3.0169 C.ar      1 <0>        -0.1025
     13 C10        -1.1904   -4.1099    2.0139 C.ar      1 <0>        -0.0418
     14 C11        -2.4775   -3.5014    1.5226 C.3       1 <0>        -0.0247
     15 C12        -2.2874   -2.8603    0.1548 C.3       1 <0>         0.1404
     16 C13        -3.5291   -4.5766    1.4266 C.ar      1 <0>        -0.0613
     17 C14        -3.3283   -5.6676    0.6009 C.ar      1 <0>        -0.1160
     18 C15        -4.2910   -6.6556    0.5106 C.ar      1 <0>        -0.0988
     19 C16        -5.4569   -6.5549    1.2452 C.ar      1 <0>        -0.1437
     20 C17        -5.6607   -5.4616    2.0741 C.ar      1 <0>         0.1090
     21 C18        -4.6902   -4.4743    2.1676 C.ar      1 <0>        -0.1368
     22 O2         -6.8066   -5.3604    2.7977 O.3       1 <0>        -0.4985
     23 I1          2.8499   -6.1413    3.8186 I         1 <0>        -0.0385
     24 H1          0.9815    1.8485   -0.3665 H         1 <0>         0.0769
     25 H2         -0.7178    1.8385   -0.8961 H         1 <0>         0.0631
     26 H3         -0.3264    1.7962    0.8398 H         1 <0>         0.0592
     27 H4          1.8165   -0.8551    0.4313 H         1 <0>         0.0619
     28 H5          1.0255   -1.6739   -0.9370 H         1 <0>         0.0853
     29 H6          1.8479   -0.1152   -1.1873 H         1 <0>         0.0730
     30 H7          0.5119   -3.2275   -0.4943 H         1 <0>         0.0849
     31 H8          0.9657   -2.0003    0.7113 H         1 <0>         0.1220
     32 H9          2.1596   -4.0349    1.6597 H         1 <0>         0.1314
     33 H10        -0.2043   -6.3907    4.3097 H         1 <0>         0.1303
     34 H11        -2.2395   -5.3625    3.3982 H         1 <0>         0.1304
     35 H12        -2.8074   -2.7406    2.2301 H         1 <0>         0.1006
     36 H13        -3.1486   -2.2343   -0.0790 H         1 <0>         0.1026
     37 H14        -2.1790   -3.6371   -0.6021 H         1 <0>         0.0773
     38 H15        -2.4179   -5.7477    0.0254 H         1 <0>         0.1236
     39 H16        -4.1318   -7.5066   -0.1350 H         1 <0>         0.1286
     40 H17        -6.2090   -7.3267    1.1737 H         1 <0>         0.1292
     41 H18        -4.8445   -3.6245    2.8160 H         1 <0>         0.1301
     42 H19        -6.7554   -5.7655    3.6742 H         1 <0>         0.3918
@<TRIPOS>BOND
     1    1    2 1
     2    1   24 1
     3    1   25 1
     4    1   26 1
     5    2    3 1
     6    2    4 am
     7    3   27 1
     8    3   28 1
     9    3   29 1
    10    4    5 2
    11    4    6 am
    12    6   15 1
    13    6    7 1
    14    7    8 1
    15    7   30 1
    16    7   31 1
    17    8   13 ar
    18    8    9 ar
    19    9   10 ar
    20    9   32 1
    21   10   11 ar
    22   10   23 1
    23   11   12 ar
    24   11   33 1
    25   12   13 ar
    26   12   34 1
    27   13   14 1
    28   14   15 1
    29   14   16 1
    30   14   35 1
    31   15   36 1
    32   15   37 1
    33   16   21 ar
    34   16   17 ar
    35   17   18 ar
    36   17   38 1
    37   18   19 ar
    38   18   39 1
    39   19   20 ar
    40   19   40 1
    41   20   21 ar
    42   20   22 1
    43   21   41 1
    44   22   42 1
@<TRIPOS>MOLECULE
CHEMBL208422
   59    62     0     0     0
SMALL
USER_CHARGES

@<TRIPOS>ATOM
      1 C1         -0.5584   -0.5897    1.2467 C.3       1 <0>        -0.1772
      2 C2         -0.3878    0.1222   -0.0705 C.2       1 <0>         0.5139
      3 O1         -0.4202    1.3338   -0.1136 O.2       1 <0>        -0.5447
      4 N1         -0.1992   -0.5875   -1.2007 N.am      1 <0>        -0.6171
      5 C3          0.0908    0.0911   -2.4711 C.3       1 <0>         0.1134
      6 C4         -0.9155   -0.3831   -3.5244 C.3       1 <0>        -0.1407
      7 C5         -0.8809   -1.9109   -3.6057 C.3       1 <0>         0.1597
      8 C6         -1.2814   -2.5046   -2.2532 C.3       1 <0>        -0.1445
      9 C7         -0.2737   -2.0547   -1.1844 C.3       1 <0>         0.1084
     10 N2         -1.8183   -2.3662   -4.6353 N.am      1 <0>        -0.6224
     11 C8         -3.2440   -2.0500   -4.5194 C.3       1 <0>         0.0377
     12 C9         -1.3690   -3.0761   -5.6893 C.2       1 <0>         0.7376
     13 O2         -0.1754   -3.2541   -5.8380 O.2       1 <0>        -0.5678
     14 N3         -2.2427   -3.5885   -6.5783 N.am      1 <0>        -0.6284
     15 C10        -3.7085   -3.4995   -6.5328 C.3       1 <0>         0.1370
     16 C11        -4.2377   -4.2241   -7.7422 C.2       1 <0>        -0.1171
     17 C12        -3.2333   -4.7043   -8.4525 C.2       1 <0>        -0.1104
     18 C13        -1.9258   -4.3461   -7.7967 C.3       1 <0>         0.2232
     19 H1         -1.3824   -5.2548   -7.5374 H         1 <0>         0.0981
     20 C14        -1.0977   -3.4978   -8.7270 C.ar      1 <0>        -0.0864
     21 C15        -1.3848   -2.1539   -8.8767 C.ar      1 <0>        -0.0933
     22 C16        -0.6251   -1.3757   -9.7301 C.ar      1 <0>        -0.1203
     23 C17         0.4220   -1.9414  -10.4334 C.ar      1 <0>        -0.1157
     24 C18         0.7096   -3.2851  -10.2830 C.ar      1 <0>        -0.1187
     25 C19        -0.0473   -4.0623   -9.4263 C.ar      1 <0>        -0.1008
     26 C20        -5.6676   -4.3757   -8.0831 C.ar      1 <0>        -0.0405
     27 C21        -6.4657   -5.2734   -7.3733 C.ar      1 <0>        -0.1100
     28 C22        -7.8020   -5.4100   -7.6967 C.ar      1 <0>         0.0935
     29 C23        -8.3499   -4.6580   -8.7238 C.ar      1 <0>        -0.1183
     30 C24        -7.5645   -3.7667   -9.4310 C.ar      1 <0>        -0.1220
     31 C25        -6.2275   -3.6163   -9.1137 C.ar      1 <0>         0.1065
     32 F1         -5.4626   -2.7412   -9.8023 F         1 <0>        -0.1256
     33 F2         -8.5761   -6.2789   -7.0104 F         1 <0>        -0.1312
     34 H2         -1.6204   -0.7215    1.4535 H         1 <0>         0.0943
     35 H3         -0.0739   -1.5649    1.1980 H         1 <0>         0.0825
     36 H4         -0.1042    0.0024    2.0412 H         1 <0>         0.0949
     37 H5          0.0003    1.1692   -2.3385 H         1 <0>         0.0974
     38 H6          1.1020   -0.1557   -2.7947 H         1 <0>         0.0719
     39 H7         -1.9168   -0.0562   -3.2440 H         1 <0>         0.0699
     40 H8         -0.6528    0.0389   -4.4945 H         1 <0>         0.0801
     41 H9          0.1267   -2.2383   -3.8619 H         1 <0>         0.1063
     42 H10        -2.2793   -2.1578   -1.9847 H         1 <0>         0.0723
     43 H11        -1.2792   -3.5927   -2.3185 H         1 <0>         0.0817
     44 H12         0.7084   -2.4730   -1.4052 H         1 <0>         0.0757
     45 H13        -0.6049   -2.3930   -0.2026 H         1 <0>         0.0948
     46 H14        -3.4711   -1.1702   -5.1215 H         1 <0>         0.0542
     47 H15        -3.8337   -2.8952   -4.8743 H         1 <0>         0.0968
     48 H16        -3.4880   -1.8492   -3.4762 H         1 <0>         0.0739
     49 H17        -4.0807   -3.9734   -5.6244 H         1 <0>         0.0915
     50 H18        -4.0176   -2.4547   -6.5619 H         1 <0>         0.0854
     51 H19        -3.3343   -5.2660   -9.3694 H         1 <0>         0.1543
     52 H20        -2.2028   -1.7120   -8.3272 H         1 <0>         0.1120
     53 H21        -0.8499   -0.3260   -9.8476 H         1 <0>         0.1198
     54 H22         1.0150   -1.3336  -11.1006 H         1 <0>         0.1213
     55 H23         1.5275   -3.7270  -10.8327 H         1 <0>         0.1231
     56 H24         0.1797   -5.1113   -9.3060 H         1 <0>         0.1221
     57 H25        -6.0398   -5.8605   -6.5732 H         1 <0>         0.1483
     58 H26        -9.3948   -4.7691   -8.9731 H         1 <0>         0.1491
     59 H27        -7.9975   -3.1836  -10.2303 H         1 <0>         0.1505
@<TRIPOS>BOND
     1    1    2 1
     2    1   34 1
     3    1   35 1
     4    1   36 1
     5    2    3 2
     6    2    4 am
     7    4    9 1
     8    4    5 1
     9    5    6 1
    10    5   37 1
    11    5   38 1
    12    6    7 1
    13    6   39 1
    14    6   40 1
    15    7    8 1
    16    7   10 1
    17    7   41 1
    18    8    9 1
    19    8   42 1
    20    8   43 1
    21    9   44 1
    22    9   45 1
    23   10   11 1
    24   10   12 am
    25   11   46 1
    26   11   47 1
    27   11   48 1
    28   12   13 2
    29   12   14 am
    30   14   18 1
    31   14   15 1
    32   15   16 1
    33   15   49 1
    34   15   50 1
    35   16   17 2
    36   16   26 1
    37   17   18 1
    38   17   51 1
    39   18   19 1
    40   18   20 1
    41   20   25 ar
    42   20   21 ar
    43   21   22 ar
    44   21   52 1
    45   22   23 ar
    46   22   53 1
    47   23   24 ar
    48   23   54 1
    49   24   25 ar
    50   24   55 1
    51   25   56 1
    52   26   31 ar
    53   26   27 ar
    54   27   28 ar
    55   27   57 1
    56   28   29 ar
    57   28   33 1
    58   29   30 ar
    59   29   58 1
    60   30   31 ar
    61   30   59 1
    62   31   32 1
@<TRIPOS>MOLECULE
CHEMBL380294
   67    71     0     0     0
SMALL
USER_CHARGES

@<TRIPOS>ATOM
      1 C1         -1.0781    1.5536    2.2634 C.3       1 <0>        -0.1300
      2 C2         -0.8926    0.1027    1.9008 C.ar      1 <0>        -0.0401
      3 C3         -0.9242   -0.2848    0.5730 C.ar      1 <0>        -0.1250
      4 C4         -0.7551   -1.6114    0.2342 C.ar      1 <0>        -0.0382
      5 C5         -0.5517   -2.5634    1.2345 C.ar      1 <0>        -0.1484
      6 C6         -0.5208   -2.1657    2.5721 C.ar      1 <0>        -0.1366
      7 C7         -0.6857   -0.8351    2.8968 C.ar      1 <0>        -0.1626
      8 C8         -0.3702   -3.9869    0.8788 C.2       1 <0>         0.5686
      9 O1         -0.7726   -4.4023   -0.1904 O.2       1 <0>        -0.4995
     10 N1          0.2414   -4.8240    1.7400 N.am      1 <0>        -0.6066
     11 C9          0.2596   -4.5167    3.1722 C.3       1 <0>         0.0936
     12 C10         1.2929   -3.4220    3.4459 C.3       1 <0>        -0.2115
     13 C11         1.1484   -2.9334    4.8886 C.3       1 <0>        -0.0141
     14 N2          2.0578   -1.8024    5.1159 N.4       1 <0>        -0.6369
     15 C12         0.8881   -6.0413    1.2438 C.3       1 <0>         0.2256
     16 C13         0.2697   -7.2448    1.9073 C.2       1 <0>         0.3654
     17 N3          0.4060   -7.3869    3.1828 N.2       1 <0>        -0.3006
     18 N4         -0.1460   -8.4835    3.8567 N.pl3     1 <0>        -0.2671
     19 C14        -0.1472   -8.8562    5.1514 C.2       1 <0>         0.0806
     20 C15        -0.8354  -10.0197    5.2795 C.2       1 <0>        -0.1838
     21 C16        -1.2862  -10.3946    4.0100 C.2       1 <0>        -0.0048
     22 C17        -0.8493   -9.4274    3.1306 C.2       1 <0>        -0.1002
     23 C18        -0.9851   -9.2374    1.6871 C.2       1 <0>         0.5821
     24 O2         -1.5951  -10.0410    1.0050 O.2       1 <0>        -0.4631
     25 N5         -0.4203   -8.1425    1.1314 N.am      1 <0>        -0.5449
     26 C19        -0.5401   -7.9153   -0.3109 C.3       1 <0>         0.1298
     27 C20         0.5518   -8.6649   -1.0299 C.ar      1 <0>        -0.1280
     28 C21         1.7011   -8.0043   -1.4219 C.ar      1 <0>        -0.1072
     29 C22         2.7027   -8.6918   -2.0815 C.ar      1 <0>        -0.1208
     30 C23         2.5552  -10.0401   -2.3486 C.ar      1 <0>        -0.1024
     31 C24         1.4063  -10.7009   -1.9558 C.ar      1 <0>        -0.1170
     32 C25         0.4066  -10.0143   -1.2924 C.ar      1 <0>        -0.0896
     33 Cl1        -2.2166  -11.8066    3.6173 Cl        1 <0>        -0.0099
     34 C26         2.3828   -5.9927    1.5668 C.3       1 <0>        -0.1734
     35 C27         2.9445   -7.0856    2.4784 C.3       1 <0>        -0.1713
     36 C28         3.2680   -7.0957    0.9830 C.3       1 <0>        -0.1792
     37 H1         -0.1083    2.0511    2.2791 H         1 <0>         0.0797
     38 H2         -1.7206    2.0334    1.5251 H         1 <0>         0.0778
     39 H3         -1.5395    1.6259    3.2483 H         1 <0>         0.0728
     40 H4         -1.0821    0.4527   -0.2000 H         1 <0>         0.1377
     41 H5         -0.7804   -1.9127   -0.8026 H         1 <0>         0.1413
     42 H6         -0.3639   -2.8975    3.3507 H         1 <0>         0.1659
     43 H7         -0.6577   -0.5254    3.9311 H         1 <0>         0.1243
     44 H8         -0.7266   -4.1711    3.4822 H         1 <0>         0.0970
     45 H9          0.5231   -5.4134    3.7330 H         1 <0>         0.1279
     46 H10         2.2953   -3.8232    3.2968 H         1 <0>         0.1031
     47 H11         1.1295   -2.5890    2.7621 H         1 <0>         0.1241
     48 H12         0.1209   -2.6142    5.0629 H         1 <0>         0.1372
     49 H13         1.3982   -3.7438    5.5734 H         1 <0>         0.1453
     50 H14         2.9994   -2.0746    4.8767 H         1 <0>         0.4379
     51 H15         1.7762   -1.0234    4.5398 H         1 <0>         0.4345
     52 H16         0.7517   -6.1112    0.1646 H         1 <0>         0.1409
     53 H17         0.3243   -8.3157    5.9588 H         1 <0>         0.1863
     54 H18        -1.0046  -10.5600    6.1992 H         1 <0>         0.1723
     55 H19        -1.5116   -8.2699   -0.6551 H         1 <0>         0.1150
     56 H20        -0.4474   -6.8495   -0.5198 H         1 <0>         0.1139
     57 H21         1.8163   -6.9509   -1.2133 H         1 <0>         0.1205
     58 H22         3.6003   -8.1756   -2.3884 H         1 <0>         0.1278
     59 H23         3.3374  -10.5771   -2.8645 H         1 <0>         0.1278
     60 H24         1.2909  -11.7542   -2.1647 H         1 <0>         0.1283
     61 H25        -0.4894  -10.5314   -0.9822 H         1 <0>         0.1345
     62 H26         2.8130   -4.9949    1.6527 H         1 <0>         0.1247
     63 H27         3.7444   -6.8068    3.1645 H         1 <0>         0.1006
     64 H28         2.2492   -7.8392    2.8480 H         1 <0>         0.1072
     65 H29         2.7855   -7.8560    0.3689 H         1 <0>         0.1109
     66 H30         4.2806   -6.8236    0.6853 H         1 <0>         0.1081
     67 H31         2.0223   -1.5323    6.0875 H         1 <0>         0.4416
@<TRIPOS>BOND
     1    1    2 1
     2    1   37 1
     3    1   38 1
     4    1   39 1
     5    2    7 ar
     6    2    3 ar
     7    3    4 ar
     8    3   40 1
     9    4    5 ar
    10    4   41 1
    11    5    6 ar
    12    5    8 1
    13    6    7 ar
    14    6   42 1
    15    7   43 1
    16    8    9 2
    17    8   10 am
    18   10   11 1
    19   10   15 1
    20   11   12 1
    21   11   44 1
    22   11   45 1
    23   12   13 1
    24   12   46 1
    25   12   47 1
    26   13   14 1
    27   13   48 1
    28   13   49 1
    29   14   50 1
    30   14   51 1
    31   14   67 1
    32   15   16 1
    33   15   34 1
    34   15   52 1
    35   16   25 1
    36   16   17 2
    37   17   18 1
    38   18   22 1
    39   18   19 1
    40   19   20 2
    41   19   53 1
    42   20   21 1
    43   20   54 1
    44   21   22 2
    45   21   33 1
    46   22   23 1
    47   23   24 2
    48   23   25 am
    49   25   26 1
    50   26   27 1
    51   26   55 1
    52   26   56 1
    53   27   32 ar
    54   27   28 ar
    55   28   29 ar
    56   28   57 1
    57   29   30 ar
    58   29   58 1
    59   30   31 ar
    60   30   59 1
    61   31   32 ar
    62   31   60 1
    63   32   61 1
    64   34   36 1
    65   34   35 1
    66   34   62 1
    67   35   36 1
    68   35   63 1
    69   35   64 1
    70   36   65 1
    71   36   66 1
@<TRIPOS>MOLECULE
CHEMBL380294__1
   67    71     0     0     0
SMALL
USER_CHARGES

@<TRIPOS>ATOM
      1 C1          1.2335    1.0403    4.0405 C.3       1 <0>        -0.1269
      2 C2          0.8032   -0.2887    3.4752 C.ar      1 <0>        -0.0500
      3 C3          1.4323   -0.7956    2.3520 C.ar      1 <0>        -0.1173
      4 C4          1.0432   -2.0116    1.8294 C.ar      1 <0>        -0.0531
      5 C5          0.0125   -2.7308    2.4363 C.ar      1 <0>        -0.1392
      6 C6         -0.6180   -2.2138    3.5692 C.ar      1 <0>        -0.1075
      7 C7         -0.2155   -0.9992    4.0850 C.ar      1 <0>        -0.1310
      8 C8         -0.4100   -4.0344    1.8814 C.2       1 <0>         0.5670
      9 O1         -0.4856   -4.1869    0.6779 O.2       1 <0>        -0.5078
     10 N1         -0.7114   -5.0537    2.7100 N.am      1 <0>        -0.5918
     11 C9         -0.8105   -4.8201    4.1529 C.3       1 <0>         0.0732
     12 C10        -2.2815   -4.6671    4.5449 C.3       1 <0>        -0.1916
     13 C11        -2.3769   -4.2435    6.0120 C.3       1 <0>        -0.0102
     14 N2         -3.7872   -4.2122    6.4220 N.4       1 <0>        -0.6374
     15 C12        -0.9400   -6.3954    2.1679 C.3       1 <0>         0.2261
     16 C13         0.0218   -7.3651    2.8049 C.2       1 <0>         0.3711
     17 N3          0.5251   -7.0716    3.9564 N.2       1 <0>        -0.3076
     18 N4          1.4239   -7.9321    4.5994 N.pl3     1 <0>        -0.2673
     19 C14         2.0763   -7.8613    5.7760 C.2       1 <0>         0.0794
     20 C15         2.8387   -8.9742    5.9304 C.2       1 <0>        -0.1844
     21 C16         2.6574   -9.7795    4.8017 C.2       1 <0>        -0.0051
     22 C17         1.7720   -9.1179    3.9783 C.2       1 <0>        -0.1008
     23 C18         1.1844   -9.4205    2.6740 C.2       1 <0>         0.5838
     24 O2          1.4600  -10.4518    2.0878 O.2       1 <0>        -0.4573
     25 N5          0.3225   -8.5272    2.1393 N.am      1 <0>        -0.5491
     26 C19        -0.2906   -8.7985    0.8367 C.3       1 <0>         0.1315
     27 C20         0.7743   -8.7980   -0.2296 C.ar      1 <0>        -0.1384
     28 C21         1.0329   -7.6454   -0.9476 C.ar      1 <0>        -0.0999
     29 C22         2.0097   -7.6449   -1.9257 C.ar      1 <0>        -0.1247
     30 C23         2.7283   -8.7969   -2.1855 C.ar      1 <0>        -0.1002
     31 C24         2.4704   -9.9493   -1.4668 C.ar      1 <0>        -0.1237
     32 C25         1.4965   -9.9485   -0.4857 C.ar      1 <0>        -0.0774
     33 Cl1         3.4044  -11.3165    4.4960 Cl        1 <0>        -0.0101
     34 C26        -2.3760   -6.8293    2.4689 C.3       1 <0>        -0.1719
     35 C27        -2.5777   -7.9266    3.5159 C.3       1 <0>        -0.1770
     36 C28        -2.7953   -8.2347    2.0332 C.3       1 <0>        -0.1899
     37 H1          2.0261    0.8844    4.7724 H         1 <0>         0.0799
     38 H2          1.6025    1.6754    3.2352 H         1 <0>         0.0752
     39 H3          0.3832    1.5224    4.5229 H         1 <0>         0.0718
     40 H4          2.2295   -0.2378    1.8831 H         1 <0>         0.1361
     41 H5          1.5348   -2.4060    0.9524 H         1 <0>         0.1348
     42 H6         -1.4163   -2.7654    4.0435 H         1 <0>         0.1297
     43 H7         -0.6995   -0.6001    4.9641 H         1 <0>         0.1286
     44 H8         -0.3777   -5.6651    4.6884 H         1 <0>         0.1326
     45 H9         -0.2690   -3.9101    4.4116 H         1 <0>         0.1115
     46 H10        -2.7480   -3.9083    3.9166 H         1 <0>         0.0952
     47 H11        -2.7950   -5.6186    4.4074 H         1 <0>         0.1034
     48 H12        -1.8340   -4.9569    6.6322 H         1 <0>         0.1408
     49 H13        -1.9413   -3.2517    6.1329 H         1 <0>         0.1373
     50 H14        -4.3060   -3.6142    5.7965 H         1 <0>         0.4358
     51 H15        -4.1682   -5.1459    6.3878 H         1 <0>         0.4362
     52 H16        -0.7826   -6.3831    1.0894 H         1 <0>         0.1433
     53 H17         2.0046   -7.0485    6.4835 H         1 <0>         0.1854
     54 H18         3.4729   -9.1979    6.7754 H         1 <0>         0.1717
     55 H19        -0.7798   -9.7723    0.8611 H         1 <0>         0.1103
     56 H20        -1.0278   -8.0270    0.6144 H         1 <0>         0.1148
     57 H21         0.4714   -6.7454   -0.7447 H         1 <0>         0.1204
     58 H22         2.2112   -6.7447   -2.4872 H         1 <0>         0.1260
     59 H23         3.4910   -8.7967   -2.9501 H         1 <0>         0.1264
     60 H24         3.0316  -10.8494   -1.6699 H         1 <0>         0.1271
     61 H25         1.2975  -10.8478    0.0783 H         1 <0>         0.1406
     62 H26        -3.1265   -6.0407    2.4148 H         1 <0>         0.1319
     63 H27        -1.6873   -8.3393    3.9903 H         1 <0>         0.0929
     64 H28        -3.4610   -7.8599    4.1511 H         1 <0>         0.1034
     65 H29        -3.8219   -8.3708    1.6928 H         1 <0>         0.1153
     66 H30        -2.0482   -8.8502    1.5321 H         1 <0>         0.1175
     67 H31        -3.8560   -3.8551    7.3631 H         1 <0>         0.4409
@<TRIPOS>BOND
     1    1    2 1
     2    1   37 1
     3    1   38 1
     4    1   39 1
     5    2    7 ar
     6    2    3 ar
     7    3    4 ar
     8    3   40 1
     9    4    5 ar
    10    4   41 1
    11    5    6 ar
    12    5    8 1
    13    6    7 ar
    14    6   42 1
    15    7   43 1
    16    8    9 2
    17    8   10 am
    18   10   11 1
    19   10   15 1
    20   11   12 1
    21   11   44 1
    22   11   45 1
    23   12   13 1
    24   12   46 1
    25   12   47 1
    26   13   14 1
    27   13   48 1
    28   13   49 1
    29   14   50 1
    30   14   51 1
    31   14   67 1
    32   15   16 1
    33   15   34 1
    34   15   52 1
    35   16   25 1
    36   16   17 2
    37   17   18 1
    38   18   22 1
    39   18   19 1
    40   19   20 2
    41   19   53 1
    42   20   21 1
    43   20   54 1
    44   21   22 2
    45   21   33 1
    46   22   23 1
    47   23   24 2
    48   23   25 am
    49   25   26 1
    50   26   27 1
    51   26   55 1
    52   26   56 1
    53   27   32 ar
    54   27   28 ar
    55   28   29 ar
    56   28   57 1
    57   29   30 ar
    58   29   58 1
    59   30   31 ar
    60   30   59 1
    61   31   32 ar
    62   31   60 1
    63   32   61 1
    64   34   36 1
    65   34   35 1
    66   34   62 1
    67   35   36 1
    68   35   63 1
    69   35   64 1
    70   36   65 1
    71   36   66 1
@<TRIPOS>MOLECULE
CHEMBL232133
   50    52     0     0     0
SMALL
USER_CHARGES

@<TRIPOS>ATOM
      1 C1          0.2192    1.1985   -0.9569 C.ar      1 <0>        -0.1034
      2 C2          0.7892    1.5121    0.2628 C.ar      1 <0>        -0.1173
      3 C3          1.9703    0.9069    0.6498 C.ar      1 <0>        -0.1072
      4 C4          2.5810   -0.0122   -0.1827 C.ar      1 <0>        -0.1019
      5 C5          2.0105   -0.3265   -1.4020 C.ar      1 <0>        -0.0898
      6 C6          0.8302    0.2797   -1.7896 C.ar      1 <0>        -0.1170
      7 C7          3.8691   -0.6712    0.2387 C.3       1 <0>         0.1180
      8 C8          4.2884   -0.1394    1.5850 C.ar      1 <0>        -0.0831
      9 C9          3.4827   -0.3423    2.6898 C.ar      1 <0>        -0.0975
     10 C10         3.8673    0.1455    3.9247 C.ar      1 <0>        -0.1130
     11 C11         5.0579    0.8359    4.0549 C.ar      1 <0>        -0.1087
     12 C12         5.8640    1.0379    2.9503 C.ar      1 <0>        -0.1128
     13 C13         5.4815    0.5464    1.7162 C.ar      1 <0>        -0.1229
     14 C14         3.6649   -2.1616    0.3288 C.ar      1 <0>        -0.0296
     15 C15         2.4123   -2.6715    0.6150 C.ar      1 <0>        -0.0974
     16 C16         2.2249   -4.0386    0.6976 C.ar      1 <0>        -0.0647
     17 C17         3.2900   -4.8958    0.4936 C.ar      1 <0>        -0.1748
     18 C18         4.5424   -4.3859    0.2065 C.ar      1 <0>        -0.0648
     19 C19         4.7289   -3.0189    0.1197 C.ar      1 <0>        -0.1037
     20 C20         3.0860   -6.3861    0.5846 C.3       1 <0>         0.5076
     21 F1          2.7435   -6.8878   -0.6757 F         1 <0>        -0.1744
     22 F2          4.2681   -6.9928    1.0225 F         1 <0>        -0.1757
     23 F3          2.0569   -6.6614    1.4915 F         1 <0>        -0.1752
     24 S1          5.1607   -0.3106   -0.9828 S.3       1 <0>        -0.2415
     25 C21         5.1486    1.4986   -1.1133 C.3       1 <0>        -0.1113
     26 C22         6.2942    1.9523   -2.0204 C.3       1 <0>        -0.0276
     27 H1          6.1678    1.5157   -3.0111 H         1 <0>         0.1423
     28 C23         6.2841    3.4553   -2.1287 C.2       1 <0>         0.4939
     29 O1          6.9184    4.1281   -1.3340 O.co2     1 <0>        -0.6596
     30 O2          5.6417    3.9986   -3.0111 O.co2     1 <0>        -0.6265
     31 N1          7.5742    1.5109   -1.4505 N.4       1 <0>        -0.6161
     32 H2         -0.7059    1.6679   -1.2573 H         1 <0>         0.1264
     33 H3          0.3120    2.2302    0.9132 H         1 <0>         0.1266
     34 H4          2.4160    1.1525    1.6023 H         1 <0>         0.1320
     35 H5          2.4881   -1.0441   -2.0527 H         1 <0>         0.1282
     36 H6          0.3847    0.0344   -2.7423 H         1 <0>         0.1277
     37 H7          2.5526   -0.8816    2.5881 H         1 <0>         0.1257
     38 H8          3.2375   -0.0123    4.7877 H         1 <0>         0.1286
     39 H9          5.3580    1.2176    5.0196 H         1 <0>         0.1274
     40 H10         6.7940    1.5776    3.0519 H         1 <0>         0.1282
     41 H11         6.1131    0.7011    0.8539 H         1 <0>         0.1243
     42 H12         1.5801   -2.0018    0.7743 H         1 <0>         0.1386
     43 H13         1.2464   -4.4370    0.9218 H         1 <0>         0.1412
     44 H14         5.3747   -5.0556    0.0475 H         1 <0>         0.1404
     45 H15         5.7065   -2.6207   -0.1083 H         1 <0>         0.1393
     46 H16         4.1989    1.8261   -1.5361 H         1 <0>         0.1263
     47 H17         5.2750    1.9352   -0.1225 H         1 <0>         0.1109
     48 H18         7.5809    0.5046   -1.3780 H         1 <0>         0.4175
     49 H19         8.3297    1.8101   -2.0487 H         1 <0>         0.4341
     50 H20         7.6912    1.9150   -0.5334 H         1 <0>         0.4325
@<TRIPOS>BOND
     1    1    6 ar
     2    1    2 ar
     3    1   32 1
     4    2    3 ar
     5    2   33 1
     6    3    4 ar
     7    3   34 1
     8    4    5 ar
     9    4    7 1
    10    5    6 ar
    11    5   35 1
    12    6   36 1
    13    7    8 1
    14    7   14 1
    15    7   24 1
    16    8   13 ar
    17    8    9 ar
    18    9   10 ar
    19    9   37 1
    20   10   11 ar
    21   10   38 1
    22   11   12 ar
    23   11   39 1
    24   12   13 ar
    25   12   40 1
    26   13   41 1
    27   14   19 ar
    28   14   15 ar
    29   15   16 ar
    30   15   42 1
    31   16   17 ar
    32   16   43 1
    33   17   18 ar
    34   17   20 1
    35   18   19 ar
    36   18   44 1
    37   19   45 1
    38   20   21 1
    39   20   22 1
    40   20   23 1
    41   24   25 1
    42   25   26 1
    43   25   46 1
    44   25   47 1
    45   26   27 1
    46   26   28 1
    47   26   31 1
    48   28   29 2
    49   28   30 1
    50   31   48 1
    51   31   49 1
    52   31   50 1
@<TRIPOS>MOLECULE
CHEMBL392369
   51    53     0     0     0
SMALL
USER_CHARGES

@<TRIPOS>ATOM
      1 C1          0.7124    1.4828    0.3222 C.3       1 <0>         0.0258
      2 O1          0.0873    0.2852   -0.1438 O.3       1 <0>        -0.3151
      3 C2          0.6557   -0.3315   -1.2132 C.ar      1 <0>         0.1375
      4 C3          1.7950    0.2018   -1.7983 C.ar      1 <0>        -0.2052
      5 C4          2.3711   -0.4273   -2.8849 C.ar      1 <0>        -0.0602
      6 C5          1.8129   -1.5872   -3.3897 C.ar      1 <0>        -0.1020
      7 C6          0.6772   -2.1204   -2.8087 C.ar      1 <0>        -0.0550
      8 C7          0.1009   -1.4985   -1.7180 C.ar      1 <0>        -0.1479
      9 C8          2.4432   -2.2711   -4.5755 C.3       1 <0>         0.1299
     10 C9          2.1741   -3.7521   -4.5027 C.ar      1 <0>        -0.0971
     11 C10         1.6366   -4.4113   -5.5924 C.ar      1 <0>        -0.1057
     12 C11         1.3899   -5.7698   -5.5257 C.ar      1 <0>        -0.1173
     13 C12         1.6810   -6.4692   -4.3694 C.ar      1 <0>        -0.1048
     14 C13         2.2194   -5.8102   -3.2800 C.ar      1 <0>        -0.1187
     15 C14         2.4701   -4.4524   -3.3482 C.ar      1 <0>        -0.0870
     16 C15         1.8550   -1.7156   -5.8469 C.ar      1 <0>        -0.0787
     17 C16         0.4972   -1.8208   -6.0840 C.ar      1 <0>        -0.0946
     18 C17        -0.0424   -1.3113   -7.2502 C.ar      1 <0>        -0.1138
     19 C18         0.7758   -0.6961   -8.1792 C.ar      1 <0>        -0.1120
     20 C19         2.1335   -0.5900   -7.9417 C.ar      1 <0>        -0.1152
     21 C20         2.6724   -1.0958   -6.7735 C.ar      1 <0>        -0.1264
     22 S1          4.2336   -1.9803   -4.5600 S.3       1 <0>        -0.2501
     23 C21         4.8576   -3.0122   -5.9152 C.3       1 <0>        -0.1086
     24 C22         6.3562   -2.7634   -6.0973 C.3       1 <0>        -0.0284
     25 H1          6.8811   -3.0168   -5.1763 H         1 <0>         0.1420
     26 C23         6.8745   -3.6207   -7.2232 C.2       1 <0>         0.4961
     27 O2          7.2163   -3.1056   -8.2740 O.co2     1 <0>        -0.6648
     28 O3          6.9520   -4.8294   -7.0831 O.co2     1 <0>        -0.6263
     29 N1          6.5823   -1.3473   -6.4161 N.4       1 <0>        -0.6142
     30 H2          1.7379    1.2649    0.6207 H         1 <0>         0.0570
     31 H3          0.7162    2.2250   -0.4760 H         1 <0>         0.0567
     32 H4          0.1600    1.8718    1.1775 H         1 <0>         0.1028
     33 H5          2.2309    1.1081   -1.4047 H         1 <0>         0.1311
     34 H6          3.2580   -0.0126   -3.3407 H         1 <0>         0.1289
     35 H7          0.2429   -3.0263   -3.2051 H         1 <0>         0.1323
     36 H8         -0.7837   -1.9179   -1.2618 H         1 <0>         0.1352
     37 H9          1.4092   -3.8649   -6.4958 H         1 <0>         0.1275
     38 H10         0.9693   -6.2847   -6.3768 H         1 <0>         0.1255
     39 H11         1.4876   -7.5304   -4.3170 H         1 <0>         0.1253
     40 H12         2.4465   -6.3565   -2.3765 H         1 <0>         0.1263
     41 H13         2.8942   -3.9382   -2.4984 H         1 <0>         0.1263
     42 H14        -0.1421   -2.3015   -5.3582 H         1 <0>         0.1247
     43 H15        -1.1031   -1.3941   -7.4358 H         1 <0>         0.1271
     44 H16         0.3544   -0.2986   -9.0907 H         1 <0>         0.1257
     45 H17         2.7728   -0.1096   -8.6676 H         1 <0>         0.1260
     46 H18         3.7325   -1.0096   -6.5862 H         1 <0>         0.1236
     47 H19         4.6898   -4.0629   -5.6787 H         1 <0>         0.1285
     48 H20         4.3326   -2.7588   -6.8362 H         1 <0>         0.1053
     49 H21         6.2352   -0.7734   -5.6623 H         1 <0>         0.4167
     50 H22         7.5706   -1.1833   -6.5362 H         1 <0>         0.4349
     51 H23         6.0963   -1.1127   -7.2687 H         1 <0>         0.4308
@<TRIPOS>BOND
     1    1    2 1
     2    1   30 1
     3    1   31 1
     4    1   32 1
     5    2    3 1
     6    3    8 ar
     7    3    4 ar
     8    4    5 ar
     9    4   33 1
    10    5    6 ar
    11    5   34 1
    12    6    7 ar
    13    6    9 1
    14    7    8 ar
    15    7   35 1
    16    8   36 1
    17    9   10 1
    18    9   16 1
    19    9   22 1
    20   10   15 ar
    21   10   11 ar
    22   11   12 ar
    23   11   37 1
    24   12   13 ar
    25   12   38 1
    26   13   14 ar
    27   13   39 1
    28   14   15 ar
    29   14   40 1
    30   15   41 1
    31   16   21 ar
    32   16   17 ar
    33   17   18 ar
    34   17   42 1
    35   18   19 ar
    36   18   43 1
    37   19   20 ar
    38   19   44 1
    39   20   21 ar
    40   20   45 1
    41   21   46 1
    42   22   23 1
    43   23   24 1
    44   23   47 1
    45   23   48 1
    46   24   25 1
    47   24   26 1
    48   24   29 1
    49   26   27 2
    50   26   28 1
    51   29   49 1
    52   29   50 1
    53   29   51 1
@<TRIPOS>MOLECULE
CHEMBL1077227
   57    60     0     0     0
SMALL
USER_CHARGES

@<TRIPOS>ATOM
      1 C1         -0.0187    1.5258    0.0104 C.3       1 <0>        -0.1401
      2 C2          0.0021   -0.0041    0.0020 C.3       1 <0>        -0.0237
      3 C3          0.7421   -0.5109    1.2415 C.3       1 <0>        -0.1361
      4 C4         -1.4333   -0.5336    0.0129 C.3       1 <0>        -0.1484
      5 C5          0.7074   -0.4901   -1.2379 C.ar      1 <0>        -0.1208
      6 C6          0.0345   -1.2846   -2.1482 C.ar      1 <0>        -0.0582
      7 C7          0.6791   -1.7274   -3.2853 C.ar      1 <0>        -0.1862
      8 C8          2.0058   -1.3770   -3.5150 C.ar      1 <0>         0.2361
      9 C9          2.6795   -0.5842   -2.5996 C.ar      1 <0>        -0.1693
     10 C10         2.0233   -0.1364   -1.4658 C.ar      1 <0>        -0.0503
     11 C11         4.1222   -0.1961   -2.8083 C.3       1 <0>         0.1686
     12 H1          4.2723    0.8326   -2.4806 H         1 <0>         0.0792
     13 C12         4.4860   -0.3169   -4.2861 C.3       1 <0>        -0.1296
     14 H2          3.9356    0.4337   -4.8533 H         1 <0>         0.0982
     15 C13         5.9833   -0.1016   -4.4893 C.3       1 <0>        -0.1178
     16 C14         6.7665   -1.0690   -3.5969 C.3       1 <0>        -0.1503
     17 C15         6.3364   -0.8556   -2.1423 C.3       1 <0>         0.0646
     18 H3          6.5645    0.1668   -1.8410 H         1 <0>         0.0803
     19 O1          4.9470   -1.0681   -2.0316 O.3       1 <0>        -0.3869
     20 C16         7.0873   -1.8350   -1.2379 C.3       1 <0>         0.0018
     21 N1          6.6739   -1.6292    0.1566 N.4       1 <0>        -0.5082
     22 C17         7.3948   -2.5695    1.0249 C.3       1 <0>        -0.0476
     23 C18         4.0991   -1.7109   -4.7878 C.3       1 <0>         0.2584
     24 H4          4.5835   -2.4716   -4.1757 H         1 <0>         0.0898
     25 N2          2.6374   -1.8329   -4.6774 N.pl3     1 <0>        -0.7464
     26 C19         4.5176   -1.8704   -6.2267 C.2       1 <0>        -0.1761
     27 C20         5.6042   -2.5017   -6.7346 C.2       1 <0>        -0.1342
     28 C21         5.7878   -2.5228   -8.1045 C.2       1 <0>        -0.1646
     29 C22         4.8758   -1.9116   -8.8994 C.2       1 <0>        -0.1581
     30 S1          3.7068   -1.2836   -7.7051 S.3       1 <0>         0.0628
     31 H5          1.0039    1.9031    0.0027 H         1 <0>         0.0526
     32 H6         -0.5459    1.8868   -0.8726 H         1 <0>         0.0579
     33 H7         -0.5289    1.8773    0.9072 H         1 <0>         0.0596
     34 H8          0.2319   -0.1594    2.1383 H         1 <0>         0.0593
     35 H9          0.7568   -1.6008    1.2356 H         1 <0>         0.0551
     36 H10         1.7647   -0.1336    1.2338 H         1 <0>         0.0498
     37 H11        -1.9605   -0.1726   -0.8702 H         1 <0>         0.0601
     38 H12        -1.4185   -1.6235    0.0069 H         1 <0>         0.0588
     39 H13        -1.9435   -0.1821    0.9097 H         1 <0>         0.0604
     40 H14        -0.9947   -1.5587   -1.9691 H         1 <0>         0.1311
     41 H15         0.1535   -2.3467   -3.9971 H         1 <0>         0.1251
     42 H16         2.5432    0.4885   -0.7549 H         1 <0>         0.1181
     43 H17         6.2379   -0.2839   -5.5334 H         1 <0>         0.0882
     44 H18         6.2415    0.9243   -4.2268 H         1 <0>         0.0755
     45 H19         6.5524   -2.0955   -3.8945 H         1 <0>         0.0832
     46 H20         7.8343   -0.8732   -3.6947 H         1 <0>         0.0878
     47 H21         6.8565   -2.8570   -1.5383 H         1 <0>         0.1382
     48 H22         8.1599   -1.6633   -1.3280 H         1 <0>         0.1449
     49 H23         6.8876   -0.6831    0.4347 H         1 <0>         0.4287
     50 H24         7.1640   -3.5916    0.7245 H         1 <0>         0.1237
     51 H25         8.4675   -2.3979    0.9349 H         1 <0>         0.1235
     52 H26         7.0881   -2.4169    2.0596 H         1 <0>         0.1272
     53 H27         2.1196   -2.2255   -5.3976 H         1 <0>         0.4072
     54 H28         6.3162   -2.9807   -6.0788 H         1 <0>         0.1305
     55 H29         6.6453   -3.0186   -8.5350 H         1 <0>         0.1384
     56 H30         4.8586   -1.8293   -9.9762 H         1 <0>         0.1902
     57 H31         5.6809   -1.7882    0.2399 H         1 <0>         0.4380
@<TRIPOS>BOND
     1    1    2 1
     2    1   31 1
     3    1   32 1
     4    1   33 1
     5    2    3 1
     6    2    4 1
     7    2    5 1
     8    3   34 1
     9    3   35 1
    10    3   36 1
    11    4   37 1
    12    4   38 1
    13    4   39 1
    14    5   10 ar
    15    5    6 ar
    16    6    7 ar
    17    6   40 1
    18    7    8 ar
    19    7   41 1
    20    8   25 1
    21    8    9 ar
    22    9   10 ar
    23    9   11 1
    24   10   42 1
    25   11   12 1
    26   11   19 1
    27   11   13 1
    28   13   14 1
    29   13   15 1
    30   13   23 1
    31   15   16 1
    32   15   43 1
    33   15   44 1
    34   16   17 1
    35   16   45 1
    36   16   46 1
    37   17   18 1
    38   17   19 1
    39   17   20 1
    40   20   21 1
    41   20   47 1
    42   20   48 1
    43   21   22 1
    44   21   49 1
    45   21   57 1
    46   22   50 1
    47   22   51 1
    48   22   52 1
    49   23   24 1
    50   23   25 1
    51   23   26 1
    52   25   53 1
    53   26   30 1
    54   26   27 2
    55   27   28 1
    56   27   54 1
    57   28   29 2
    58   28   55 1
    59   29   30 1
    60   29   56 1
@<TRIPOS>MOLECULE
CHEMBL1163584
   53    57     0     0     0
SMALL
USER_CHARGES

@<TRIPOS>ATOM
      1 C1         -0.5972    1.6171    0.2612 C.3       1 <0>        -0.1103
      2 C2         -0.4740    0.1162    0.2043 C.ar      1 <0>        -0.1113
      3 C3         -0.4616   -0.5274   -1.0258 C.ar      1 <0>        -0.0946
      4 C4         -0.3494   -1.8982   -1.0994 C.ar      1 <0>        -0.1256
      5 C5         -0.2475   -2.6477    0.0680 C.ar      1 <0>         0.1000
      6 C6         -0.2607   -1.9908    1.3134 C.ar      1 <0>        -0.0940
      7 C7         -0.3699   -0.5993    1.3632 C.ar      1 <0>        -0.0701
      8 C8         -0.1404   -3.0412    2.3207 C.2       1 <0>        -0.1470
      9 C9         -0.0628   -4.2153    1.6653 C.2       1 <0>         0.0644
     10 N1         -0.1270   -3.9973    0.3190 N.pl3     1 <0>        -0.5811
     11 H1         -0.0932   -4.6894   -0.3598 H         1 <0>         0.4125
     12 C10         0.0795   -5.5509    2.3623 C.3       1 <0>         0.2462
     13 N2         -0.1682   -5.3276    3.7972 N.am      1 <0>        -0.6007
     14 C11         0.4588   -4.1638    4.4416 C.3       1 <0>         0.1037
     15 C12        -0.1101   -2.8827    3.8187 C.3       1 <0>        -0.0611
     16 C13        -0.9505   -6.1689    4.5019 C.2       1 <0>         0.5765
     17 O1         -1.2340   -5.9124    5.6562 O.2       1 <0>        -0.5278
     18 C14        -1.4629   -7.4010    3.8728 C.ar      1 <0>        -0.2021
     19 C15        -2.7419   -7.8688    4.1883 C.ar      1 <0>        -0.0083
     20 C16        -3.2172   -9.0182    3.5995 C.ar      1 <0>        -0.2069
     21 C17        -2.4255   -9.7152    2.6908 C.ar      1 <0>         0.2444
     22 C18        -1.1512   -9.2522    2.3750 C.ar      1 <0>        -0.2074
     23 C19        -0.6726   -8.1000    2.9557 C.ar      1 <0>        -0.0496
     24 N3         -2.9085  -10.8765    2.0979 N.pl3     1 <0>        -0.8680
     25 C20         1.4729   -6.0881    2.1606 C.ar      1 <0>        -0.0857
     26 C21         2.3195   -6.2371    3.2438 C.ar      1 <0>        -0.1144
     27 C22         3.5983   -6.7297    3.0621 C.ar      1 <0>        -0.0954
     28 C23         4.0339   -7.0740    1.7969 C.ar      1 <0>        -0.1390
     29 C24         3.1867   -6.9256    0.7087 C.ar      1 <0>         0.1127
     30 C25         1.9015   -6.4367    0.8946 C.ar      1 <0>        -0.1351
     31 O2          3.6128   -7.2636   -0.5367 O.3       1 <0>        -0.4970
     32 H2          0.3965    2.0644    0.2357 H         1 <0>         0.0674
     33 H3         -1.1751    1.9669   -0.5942 H         1 <0>         0.0645
     34 H4         -1.1019    1.9055    1.1832 H         1 <0>         0.0643
     35 H5         -0.5410    0.0523   -1.9336 H         1 <0>         0.1257
     36 H6         -0.3408   -2.3899   -2.0609 H         1 <0>         0.1205
     37 H7         -0.3755   -0.0905    2.3158 H         1 <0>         0.1213
     38 H8         -0.6513   -6.2555    1.9655 H         1 <0>         0.1232
     39 H9          0.2420   -4.1775    5.5098 H         1 <0>         0.1043
     40 H10         1.5371   -4.1976    4.2861 H         1 <0>         0.0796
     41 H11         0.5229   -2.0358    4.0835 H         1 <0>         0.0860
     42 H12        -1.1215   -2.7147    4.1886 H         1 <0>         0.0784
     43 H13        -3.3562   -7.3289    4.8936 H         1 <0>         0.1325
     44 H14        -4.2052   -9.3801    3.8428 H         1 <0>         0.1284
     45 H15        -0.5393   -9.7953    1.6700 H         1 <0>         0.1253
     46 H16         0.3142   -7.7387    2.7066 H         1 <0>         0.1352
     47 H17        -3.7961  -11.2002    2.3176 H         1 <0>         0.4021
     48 H18        -2.3577  -11.3629    1.4647 H         1 <0>         0.4012
     49 H19         1.9811   -5.9679    4.2335 H         1 <0>         0.1340
     50 H20         4.2576   -6.8451    3.9097 H         1 <0>         0.1321
     51 H21         5.0333   -7.4582    1.6553 H         1 <0>         0.1317
     52 H22         1.2383   -6.3246    0.0496 H         1 <0>         0.1225
     53 H23         3.4368   -8.1837   -0.7764 H         1 <0>         0.3921
@<TRIPOS>BOND
     1    1    2 1
     2    1   32 1
     3    1   33 1
     4    1   34 1
     5    2    7 ar
     6    2    3 ar
     7    3    4 ar
     8    3   35 1
     9    4    5 ar
    10    4   36 1
    11    5   10 1
    12    5    6 ar
    13    6    7 ar
    14    6    8 1
    15    7   37 1
    16    8   15 1
    17    8    9 2
    18    9   10 1
    19    9   12 1
    20   10   11 1
    21   12   13 1
    22   12   25 1
    23   12   38 1
    24   13   14 1
    25   13   16 am
    26   14   15 1
    27   14   39 1
    28   14   40 1
    29   15   41 1
    30   15   42 1
    31   16   17 2
    32   16   18 1
    33   18   23 ar
    34   18   19 ar
    35   19   20 ar
    36   19   43 1
    37   20   21 ar
    38   20   44 1
    39   21   22 ar
    40   21   24 1
    41   22   23 ar
    42   22   45 1
    43   23   46 1
    44   24   47 1
    45   24   48 1
    46   25   30 ar
    47   25   26 ar
    48   26   27 ar
    49   26   49 1
    50   27   28 ar
    51   27   50 1
    52   28   29 ar
    53   28   51 1
    54   29   30 ar
    55   29   31 1
    56   30   52 1
    57   31   53 1
@<TRIPOS>MOLECULE
CHEMBL1163584__1
   53    57     0     0     0
SMALL
USER_CHARGES

@<TRIPOS>ATOM
      1 C1          1.8474    2.3388    3.5186 C.3       1 <0>        -0.1105
      2 C2          1.7185    1.0082    2.8231 C.ar      1 <0>        -0.1112
      3 C3          1.8668    0.9346    1.4447 C.ar      1 <0>        -0.0948
      4 C4          1.7522   -0.2718    0.7900 C.ar      1 <0>        -0.1258
      5 C5          1.4860   -1.4293    1.5140 C.ar      1 <0>         0.0996
      6 C6          1.3369   -1.3502    2.9119 C.ar      1 <0>        -0.0936
      7 C7          1.4621   -0.1165    3.5547 C.ar      1 <0>        -0.0701
      8 C8          1.0703   -2.7131    3.3633 C.2       1 <0>        -0.1480
      9 C9          1.0702   -3.5019    2.2717 C.2       1 <0>         0.0663
     10 N1          1.3187   -2.7503    1.1593 N.pl3     1 <0>        -0.5809
     11 H1          1.3696   -3.0949    0.2540 H         1 <0>         0.4128
     12 C10         0.8212   -4.9937    2.3216 C.3       1 <0>         0.2452
     13 N2          0.8743   -5.4022    3.7359 N.am      1 <0>        -0.5994
     14 C11         0.1778   -4.5716    4.7298 C.3       1 <0>         0.0998
     15 C12         0.8389   -3.1881    4.7743 C.3       1 <0>        -0.0610
     16 C13         1.5445   -6.5101    4.1099 C.2       1 <0>         0.5772
     17 O1          1.5207   -6.8723    5.2704 O.2       1 <0>        -0.5268
     18 C14         2.3069   -7.2833    3.1113 C.ar      1 <0>        -0.1982
     19 C15         3.6146   -7.6910    3.3906 C.ar      1 <0>        -0.0126
     20 C16         4.3230   -8.4125    2.4572 C.ar      1 <0>        -0.2041
     21 C17         3.7388   -8.7362    1.2357 C.ar      1 <0>         0.2419
     22 C18         2.4369   -8.3312    0.9543 C.ar      1 <0>        -0.2050
     23 C19         1.7211   -7.6148    1.8861 C.ar      1 <0>        -0.0453
     24 N3          4.4574   -9.4650    0.2945 N.pl3     1 <0>        -0.8685
     25 C20        -0.5375   -5.3057    1.7491 C.ar      1 <0>        -0.0844
     26 C21        -0.7572   -5.1895    0.3888 C.ar      1 <0>        -0.1201
     27 C22        -2.0024   -5.4749   -0.1395 C.ar      1 <0>        -0.0959
     28 C23        -3.0309   -5.8767    0.6910 C.ar      1 <0>        -0.1406
     29 C24        -2.8131   -5.9940    2.0558 C.ar      1 <0>         0.1127
     30 C25        -1.5607   -5.7128    2.5828 C.ar      1 <0>        -0.1341
     31 O2         -3.8231   -6.3890    2.8748 O.3       1 <0>        -0.4971
     32 H2          2.8879    2.5029    3.7990 H         1 <0>         0.0674
     33 H3          1.5227    3.1331    2.8465 H         1 <0>         0.0645
     34 H4          1.2250    2.3429    4.4134 H         1 <0>         0.0644
     35 H5          2.0737    1.8319    0.8804 H         1 <0>         0.1256
     36 H6          1.8683   -0.3189   -0.2827 H         1 <0>         0.1204
     37 H7          1.3526   -0.0514    4.6272 H         1 <0>         0.1212
     38 H8          1.5917   -5.5171    1.7556 H         1 <0>         0.1243
     39 H9         -0.8698   -4.4664    4.4476 H         1 <0>         0.0818
     40 H10         0.2476   -5.0410    5.7110 H         1 <0>         0.1048
     41 H11         1.7925   -3.2558    5.2978 H         1 <0>         0.0780
     42 H12         0.1846   -2.4873    5.2928 H         1 <0>         0.0866
     43 H13         4.0685   -7.4396    4.3378 H         1 <0>         0.1307
     44 H14         5.3332   -8.7278    2.6724 H         1 <0>         0.1284
     45 H15         1.9866   -8.5835    0.0057 H         1 <0>         0.1267
     46 H16         0.7095   -7.3050    1.6691 H         1 <0>         0.1288
     47 H17         5.3647   -9.7473    0.4893 H         1 <0>         0.4019
     48 H18         4.0514   -9.6910   -0.5570 H         1 <0>         0.4012
     49 H19         0.0453   -4.8749   -0.2620 H         1 <0>         0.1205
     50 H20        -2.1715   -5.3835   -1.2023 H         1 <0>         0.1309
     51 H21        -4.0037   -6.0989    0.2779 H         1 <0>         0.1311
     52 H22        -1.3873   -5.8079    3.6446 H         1 <0>         0.1400
     53 H23        -3.8755   -7.3463    3.0011 H         1 <0>         0.3934
@<TRIPOS>BOND
     1    1    2 1
     2    1   32 1
     3    1   33 1
     4    1   34 1
     5    2    7 ar
     6    2    3 ar
     7    3    4 ar
     8    3   35 1
     9    4    5 ar
    10    4   36 1
    11    5   10 1
    12    5    6 ar
    13    6    7 ar
    14    6    8 1
    15    7   37 1
    16    8   15 1
    17    8    9 2
    18    9   10 1
    19    9   12 1
    20   10   11 1
    21   12   13 1
    22   12   25 1
    23   12   38 1
    24   13   14 1
    25   13   16 am
    26   14   15 1
    27   14   39 1
    28   14   40 1
    29   15   41 1
    30   15   42 1
    31   16   17 2
    32   16   18 1
    33   18   23 ar
    34   18   19 ar
    35   19   20 ar
    36   19   43 1
    37   20   21 ar
    38   20   44 1
    39   21   22 ar
    40   21   24 1
    41   22   23 ar
    42   22   45 1
    43   23   46 1
    44   24   47 1
    45   24   48 1
    46   25   30 ar
    47   25   26 ar
    48   26   27 ar
    49   26   49 1
    50   27   28 ar
    51   27   50 1
    52   28   29 ar
    53   28   51 1
    54   29   30 ar
    55   29   31 1
    56   30   52 1
    57   31   53 1
@<TRIPOS>MOLECULE
CHEMBL1082248
   48    51     0     0     0
SMALL
USER_CHARGES

@<TRIPOS>ATOM
      1 C1         -0.0178    1.4648    0.0101 C.3       1 <0>        -0.0477
      2 N1          0.0021   -0.0041    0.0020 N.4       1 <0>        -0.5087
      3 C2          0.6897   -0.4778   -1.2066 C.3       1 <0>         0.0013
      4 C3          0.7104   -2.0077   -1.2150 C.3       1 <0>         0.0615
      5 H1         -0.3118   -2.3860   -1.2073 H         1 <0>         0.0877
      6 C4          1.4304   -2.5031   -2.4730 C.3       1 <0>        -0.1504
      7 C5          1.4703   -4.0339   -2.4478 C.3       1 <0>        -0.1162
      8 C6          2.1472   -4.5064   -1.1639 C.3       1 <0>        -0.1295
      9 H2          2.0779   -5.5923   -1.1003 H         1 <0>         0.1002
     10 C7          3.6221   -4.0944   -1.1610 C.3       1 <0>         0.2092
     11 H3          3.7024   -3.0079   -1.1268 H         1 <0>         0.0838
     12 N2          4.2458   -4.6782    0.0355 N.pl3     1 <0>        -0.7328
     13 C8          3.5609   -4.6165    1.2567 C.ar      1 <0>         0.2277
     14 C9          2.2240   -4.2578    1.3083 C.ar      1 <0>        -0.1455
     15 C10         1.5719   -4.2124    2.5290 C.ar      1 <0>        -0.0314
     16 C11         2.2504   -4.5189    3.6937 C.ar      1 <0>        -0.1251
     17 C12         3.5868   -4.8742    3.6459 C.ar      1 <0>        -0.0650
     18 C13         4.2438   -4.9235    2.4309 C.ar      1 <0>         0.0336
     19 F1          5.5486   -5.2701    2.3824 F         1 <0>        -0.1294
     20 Br1         1.3502   -4.4532    5.3554 Br        1 <0>        -0.0311
     21 C14         1.4711   -3.8874    0.0572 C.3       1 <0>         0.1659
     22 H4          0.4524   -4.2662    0.1389 H         1 <0>         0.0790
     23 O1          1.4037   -2.4820   -0.0604 O.3       1 <0>        -0.3827
     24 C15         4.3014   -4.6181   -2.4001 C.ar      1 <0>        -0.1055
     25 C16         4.7051   -5.9388   -2.4612 C.ar      1 <0>        -0.1080
     26 C17         5.3282   -6.4192   -3.5978 C.ar      1 <0>        -0.1117
     27 C18         5.5471   -5.5790   -4.6735 C.ar      1 <0>        -0.1082
     28 C19         5.1425   -4.2586   -4.6127 C.ar      1 <0>        -0.1149
     29 C20         4.5156   -3.7793   -3.4778 C.ar      1 <0>        -0.1073
     30 H5          1.0047    1.8421    0.0024 H         1 <0>         0.1238
     31 H6         -0.5450    1.8259   -0.8730 H         1 <0>         0.1239
     32 H7         -0.5280    1.8163    0.9069 H         1 <0>         0.1278
     33 H8          0.4901   -0.3383    0.8195 H         1 <0>         0.4379
     34 H9          0.1625   -0.1167   -2.0897 H         1 <0>         0.1466
     35 H10         1.7123   -0.1005   -1.2143 H         1 <0>         0.1391
     36 H11         0.8919   -2.1662   -3.3588 H         1 <0>         0.0909
     37 H12         2.4474   -2.1114   -2.4902 H         1 <0>         0.0850
     38 H13         0.4533   -4.4243   -2.4868 H         1 <0>         0.0772
     39 H14         2.0315   -4.3968   -3.3088 H         1 <0>         0.0911
     40 H15         5.1177   -5.0998   -0.0195 H         1 <0>         0.4137
     41 H16         0.5287   -3.9359    2.5713 H         1 <0>         0.1379
     42 H17         4.1159   -5.1123    4.5568 H         1 <0>         0.1509
     43 H18         4.5341   -6.5952   -1.6208 H         1 <0>         0.1227
     44 H19         5.6443   -7.4508   -3.6453 H         1 <0>         0.1279
     45 H20         6.0345   -5.9542   -5.5612 H         1 <0>         0.1279
     46 H21         5.3139   -3.6021   -5.4530 H         1 <0>         0.1274
     47 H22         4.1962   -2.7487   -3.4317 H         1 <0>         0.1201
     48 H23        -0.9445   -0.3533    0.0092 H         1 <0>         0.4292
@<TRIPOS>BOND
     1    1    2 1
     2    1   30 1
     3    1   31 1
     4    1   32 1
     5    2    3 1
     6    2   33 1
     7    2   48 1
     8    3    4 1
     9    3   34 1
    10    3   35 1
    11    4    5 1
    12    4   23 1
    13    4    6 1
    14    6    7 1
    15    6   36 1
    16    6   37 1
    17    7    8 1
    18    7   38 1
    19    7   39 1
    20    8    9 1
    21    8   21 1
    22    8   10 1
    23   10   11 1
    24   10   12 1
    25   10   24 1
    26   12   13 1
    27   12   40 1
    28   13   18 ar
    29   13   14 ar
    30   14   15 ar
    31   14   21 1
    32   15   16 ar
    33   15   41 1
    34   16   17 ar
    35   16   20 1
    36   17   18 ar
    37   17   42 1
    38   18   19 1
    39   21   22 1
    40   21   23 1
    41   24   29 ar
    42   24   25 ar
    43   25   26 ar
    44   25   43 1
    45   26   27 ar
    46   26   44 1
    47   27   28 ar
    48   27   45 1
    49   28   29 ar
    50   28   46 1
    51   29   47 1
@<TRIPOS>MOLECULE
CHEMBL1084115
   48    51     0     0     0
SMALL
USER_CHARGES

@<TRIPOS>ATOM
      1 C1         -0.0187    1.5258    0.0104 C.3       1 <0>        -0.1386
      2 C2          0.0021   -0.0041    0.0020 C.3       1 <0>        -0.0223
      3 C3          0.7421   -0.5109    1.2415 C.3       1 <0>        -0.1387
      4 C4         -1.4333   -0.5336    0.0129 C.3       1 <0>        -0.1442
      5 C5          0.7074   -0.4901   -1.2379 C.ar      1 <0>        -0.1264
      6 C6          0.0345   -1.2846   -2.1482 C.ar      1 <0>        -0.0669
      7 C7          0.6791   -1.7274   -3.2853 C.ar      1 <0>        -0.1930
      8 C8          2.0055   -1.3763   -3.5154 C.ar      1 <0>         0.2315
      9 C9          2.6792   -0.5835   -2.6000 C.ar      1 <0>        -0.1540
     10 C10         2.0233   -0.1364   -1.4658 C.ar      1 <0>        -0.0469
     11 C11         4.1217   -0.1945   -2.8092 C.3       1 <0>         0.1519
     12 H1          4.2714    0.8341   -2.4812 H         1 <0>         0.0676
     13 C12         4.4848   -0.3147   -4.2872 C.3       1 <0>        -0.1212
     14 H2          3.9338    0.4359   -4.8539 H         1 <0>         0.0853
     15 C13         5.9820   -0.0985   -4.4910 C.3       1 <0>        -0.1152
     16 C14         6.7661   -1.0658   -3.5994 C.3       1 <0>        -0.1602
     17 C15         6.3365   -0.8532   -2.1445 C.3       1 <0>         0.0624
     18 O1          4.9473   -1.0664   -2.0332 O.3       1 <0>        -0.3727
     19 C16         4.0984   -1.7086   -4.7893 C.3       1 <0>         0.2223
     20 H3          4.5834   -2.4693   -4.1777 H         1 <0>         0.0812
     21 N1          2.6368   -1.8314   -4.6783 N.pl3     1 <0>        -0.7456
     22 C17         4.5164   -1.8673   -6.2285 C.2       1 <0>        -0.1265
     23 C18         5.6730   -2.5519   -6.5515 C.2       1 <0>        -0.1491
     24 C19         6.0205   -2.6766   -7.8558 C.2       1 <0>        -0.1677
     25 S1          4.6923   -1.8105   -8.6762 S.3       1 <0>         0.0416
     26 C20         3.7609   -1.3458   -7.2257 C.2       1 <0>        -0.1631
     27 H4          1.0039    1.9031    0.0027 H         1 <0>         0.0547
     28 H5         -0.5459    1.8868   -0.8726 H         1 <0>         0.0553
     29 H6         -0.5289    1.8773    0.9072 H         1 <0>         0.0562
     30 H7          0.2319   -0.1594    2.1383 H         1 <0>         0.0557
     31 H8          0.7568   -1.6008    1.2356 H         1 <0>         0.0557
     32 H9          1.7647   -0.1336    1.2338 H         1 <0>         0.0555
     33 H10        -1.9605   -0.1726   -0.8702 H         1 <0>         0.0575
     34 H11        -1.4185   -1.6235    0.0069 H         1 <0>         0.0578
     35 H12        -1.9435   -0.1821    0.9097 H         1 <0>         0.0567
     36 H13        -0.9947   -1.5587   -1.9691 H         1 <0>         0.1260
     37 H14         0.1535   -2.3467   -3.9971 H         1 <0>         0.1200
     38 H15         2.5432    0.4885   -0.7549 H         1 <0>         0.1190
     39 H16         6.2361   -0.2803   -5.5353 H         1 <0>         0.0748
     40 H17         6.2397    0.9275   -4.2283 H         1 <0>         0.0668
     41 H18         6.5523   -2.0923   -3.8973 H         1 <0>         0.0717
     42 H19         7.8337   -0.8694   -3.6976 H         1 <0>         0.0750
     43 H20         6.8711   -1.5518   -1.5008 H         1 <0>         0.0957
     44 H21         6.5641    0.1692   -1.8429 H         1 <0>         0.0462
     45 H22         2.1190   -2.2240   -5.3985 H         1 <0>         0.4013
     46 H23         6.2907   -2.9807   -5.7764 H         1 <0>         0.1353
     47 H24         6.8784   -3.1712   -8.2868 H         1 <0>         0.1875
     48 H25         2.8361   -0.7919   -7.1599 H         1 <0>         0.1842
@<TRIPOS>BOND
     1    1    2 1
     2    1   27 1
     3    1   28 1
     4    1   29 1
     5    2    3 1
     6    2    4 1
     7    2    5 1
     8    3   30 1
     9    3   31 1
    10    3   32 1
    11    4   33 1
    12    4   34 1
    13    4   35 1
    14    5   10 ar
    15    5    6 ar
    16    6    7 ar
    17    6   36 1
    18    7    8 ar
    19    7   37 1
    20    8   21 1
    21    8    9 ar
    22    9   10 ar
    23    9   11 1
    24   10   38 1
    25   11   12 1
    26   11   18 1
    27   11   13 1
    28   13   14 1
    29   13   15 1
    30   13   19 1
    31   15   16 1
    32   15   39 1
    33   15   40 1
    34   16   17 1
    35   16   41 1
    36   16   42 1
    37   17   18 1
    38   17   43 1
    39   17   44 1
    40   19   20 1
    41   19   21 1
    42   19   22 1
    43   21   45 1
    44   22   26 2
    45   22   23 1
    46   23   24 2
    47   23   46 1
    48   24   25 1
    49   24   47 1
    50   25   26 1
    51   26   48 1
@<TRIPOS>MOLECULE
CHEMBL1084143
   74    77     0     0     0
SMALL
USER_CHARGES

@<TRIPOS>ATOM
      1 C1         -0.0187    1.5258    0.0104 C.3       1 <0>        -0.1453
      2 C2          0.0021   -0.0041    0.0020 C.3       1 <0>        -0.0496
      3 C3         -1.4333   -0.5336    0.0129 C.3       1 <0>        -0.1451
      4 C4          0.7074   -0.4901   -1.2379 C.ar      1 <0>        -0.1313
      5 C5          0.2206   -0.1501   -2.4870 C.ar      1 <0>        -0.0575
      6 C6          0.8680   -0.5925   -3.6227 C.ar      1 <0>        -0.1906
      7 C7          2.0082   -1.3818   -3.5117 C.ar      1 <0>         0.2334
      8 C8          2.4920   -1.7247   -2.2592 C.ar      1 <0>        -0.1583
      9 C9          1.8424   -1.2695   -1.1246 C.ar      1 <0>        -0.0507
     10 C10         3.7172   -2.5904   -2.1002 C.3       1 <0>         0.1570
     11 H1          4.3094   -2.2302   -1.2590 H         1 <0>         0.0704
     12 C11         4.5592   -2.5408   -3.3728 C.3       1 <0>        -0.1248
     13 H2          4.9695   -1.5380   -3.4922 H         1 <0>         0.0896
     14 C12         5.7049   -3.5464   -3.2975 C.3       1 <0>        -0.1161
     15 C13         5.1450   -4.9408   -3.0017 C.3       1 <0>        -0.1551
     16 C14         4.3324   -4.8808   -1.7046 C.3       1 <0>         0.0875
     17 H3          4.9806   -4.5783   -0.8822 H         1 <0>         0.0645
     18 O1          3.2979   -3.9335   -1.8466 O.3       1 <0>        -0.3639
     19 C15         3.7395   -6.2597   -1.4081 C.3       1 <0>         0.1219
     20 N1          2.9627   -6.2008   -0.1674 N.pl3     1 <0>        -1.1056
     21 S1          1.9104   -7.4227    0.2095 S.o2      1 <0>         2.6143
     22 O2          1.3248   -7.0293    1.4430 O.2       1 <0>        -0.9451
     23 O3          1.1101   -7.5836   -0.9536 O.2       1 <0>        -0.9389
     24 C16         2.9592   -8.8826    0.4531 C.3       1 <0>        -0.6481
     25 C17         2.0838  -10.0856    0.8098 C.3       1 <0>        -0.1427
     26 C18         2.9685  -11.3169    1.0153 C.3       1 <0>        -0.0023
     27 N2          2.1280  -12.4721    1.3578 N.4       1 <0>        -0.3898
     28 C19         2.9625  -13.6783    1.4376 C.3       1 <0>        -0.0476
     29 C20         1.4796  -12.2384    2.6551 C.3       1 <0>        -0.0574
     30 C21         3.6721   -2.8685   -4.5770 C.3       1 <0>         0.2077
     31 H4          3.1939   -3.8371   -4.4310 H         1 <0>         0.0813
     32 N3          2.6513   -1.8142   -4.6769 N.pl3     1 <0>        -0.7452
     33 C22         4.5045   -2.8940   -5.8329 C.ar      1 <0>        -0.0943
     34 C23         4.8536   -1.7099   -6.4549 C.ar      1 <0>        -0.1087
     35 C24         5.6172   -1.7332   -7.6070 C.ar      1 <0>        -0.1150
     36 C25         6.0321   -2.9407   -8.1368 C.ar      1 <0>        -0.1148
     37 C26         5.6838   -4.1248   -7.5143 C.ar      1 <0>        -0.1172
     38 C27         4.9238   -4.1012   -6.3599 C.ar      1 <0>        -0.1084
     39 H5          1.0039    1.9031    0.0027 H         1 <0>         0.0549
     40 H6         -0.5459    1.8868   -0.8726 H         1 <0>         0.0559
     41 H7         -0.5289    1.8773    0.9072 H         1 <0>         0.0567
     42 H8          0.5293   -0.3651    0.8851 H         1 <0>         0.0731
     43 H9         -1.9605   -0.1726   -0.8702 H         1 <0>         0.0558
     44 H10        -1.4185   -1.6235    0.0069 H         1 <0>         0.0543
     45 H11        -1.9435   -0.1821    0.9097 H         1 <0>         0.0566
     46 H12        -0.6658    0.4608   -2.5736 H         1 <0>         0.1221
     47 H13         0.4890   -0.3260   -4.5983 H         1 <0>         0.1216
     48 H14         2.2219   -1.5282   -0.1471 H         1 <0>         0.1185
     49 H15         6.2366   -3.5629   -4.2489 H         1 <0>         0.0809
     50 H16         6.3920   -3.2550   -2.5030 H         1 <0>         0.0696
     51 H17         4.5010   -5.2576   -3.8221 H         1 <0>         0.0778
     52 H18         5.9668   -5.6475   -2.8858 H         1 <0>         0.0788
     53 H19         3.0895   -6.5601   -2.2299 H         1 <0>         0.0905
     54 H20         4.5452   -6.9856   -1.2982 H         1 <0>         0.0792
     55 H21         3.0647   -5.4461    0.4333 H         1 <0>         0.4260
     56 H22         3.5087   -9.0924   -0.4646 H         1 <0>         0.1426
     57 H23         3.6636   -8.6928    1.2631 H         1 <0>         0.1450
     58 H24         1.5343   -9.8758    1.7275 H         1 <0>         0.1034
     59 H25         1.3795  -10.2754   -0.0002 H         1 <0>         0.1042
     60 H26         3.5180  -11.5268    0.0976 H         1 <0>         0.1363
     61 H27         3.6728  -11.1272    1.8253 H         1 <0>         0.1352
     62 H28         3.7243  -13.5430    2.2053 H         1 <0>         0.1229
     63 H29         2.3389  -14.5354    1.6917 H         1 <0>         0.1268
     64 H30         3.4436  -13.8517    0.4750 H         1 <0>         0.1243
     65 H31         0.8604  -11.3434    2.5958 H         1 <0>         0.1256
     66 H32         0.8560  -13.0955    2.9092 H         1 <0>         0.1283
     67 H33         2.2415  -12.1030    3.4228 H         1 <0>         0.1250
     68 H34         2.4255   -1.4265   -5.5368 H         1 <0>         0.4034
     69 H35         4.5295   -0.7665   -6.0410 H         1 <0>         0.1230
     70 H36         5.8893   -0.8081   -8.0933 H         1 <0>         0.1247
     71 H37         6.6281   -2.9590   -9.0373 H         1 <0>         0.1242
     72 H38         6.0076   -5.0682   -7.9285 H         1 <0>         0.1242
     73 H39         4.6548   -5.0262   -5.8715 H         1 <0>         0.1210
     74 H40         1.4228  -12.5974    0.6471 H         1 <0>         0.4291
@<TRIPOS>BOND
     1    1    2 1
     2    1   39 1
     3    1   40 1
     4    1   41 1
     5    2    3 1
     6    2    4 1
     7    2   42 1
     8    3   43 1
     9    3   44 1
    10    3   45 1
    11    4    9 ar
    12    4    5 ar
    13    5    6 ar
    14    5   46 1
    15    6    7 ar
    16    6   47 1
    17    7   32 1
    18    7    8 ar
    19    8    9 ar
    20    8   10 1
    21    9   48 1
    22   10   11 1
    23   10   18 1
    24   10   12 1
    25   12   13 1
    26   12   14 1
    27   12   30 1
    28   14   15 1
    29   14   49 1
    30   14   50 1
    31   15   16 1
    32   15   51 1
    33   15   52 1
    34   16   17 1
    35   16   18 1
    36   16   19 1
    37   19   20 1
    38   19   53 1
    39   19   54 1
    40   20   21 1
    41   20   55 1
    42   21   22 2
    43   21   23 2
    44   21   24 1
    45   24   25 1
    46   24   56 1
    47   24   57 1
    48   25   26 1
    49   25   58 1
    50   25   59 1
    51   26   27 1
    52   26   60 1
    53   26   61 1
    54   27   28 1
    55   27   29 1
    56   27   74 1
    57   28   62 1
    58   28   63 1
    59   28   64 1
    60   29   65 1
    61   29   66 1
    62   29   67 1
    63   30   31 1
    64   30   32 1
    65   30   33 1
    66   32   68 1
    67   33   38 ar
    68   33   34 ar
    69   34   35 ar
    70   34   69 1
    71   35   36 ar
    72   35   70 1
    73   36   37 ar
    74   36   71 1
    75   37   38 ar
    76   37   72 1
    77   38   73 1
@<TRIPOS>MOLECULE
CHEMBL250533
   60    64     0     0     0
SMALL
USER_CHARGES

@<TRIPOS>ATOM
      1 C1          0.8022    1.1632    1.1120 C.3       1 <0>        -0.1948
      2 C2          0.5465   -0.2766    0.7480 C.2       1 <0>         0.4321
      3 O1          1.4605   -1.0768    0.7563 O.2       1 <0>        -0.4488
      4 C3         -0.7513   -0.6943    0.3986 C.2       1 <0>        -0.0758
      5 N1         -1.8211    0.0500    0.4034 N.2       1 <0>        -0.1255
      6 N2         -2.8861   -0.5057   -0.0065 N.pl3     1 <0>        -0.3762
      7 C4         -4.0993    0.0669   -0.4048 C.ar      1 <0>         0.1189
      8 C5         -4.4932    1.3182    0.0280 C.ar      1 <0>        -0.0867
      9 C6         -5.6999    1.8432   -0.4025 C.ar      1 <0>        -0.0414
     10 C7         -6.5023    1.1135   -1.2624 C.ar      1 <0>        -0.0856
     11 C8         -6.1123   -0.1398   -1.6942 C.ar      1 <0>        -0.1086
     12 C9         -4.9082   -0.6797   -1.2669 C.ar      1 <0>         0.1120
     13 O2         -4.5386   -1.9203   -1.6753 O.3       1 <0>        -0.3055
     14 C10        -3.1728   -2.3287   -1.5540 C.3       1 <0>         0.0606
     15 C11        -2.6776   -1.9692   -0.1493 C.3       1 <0>         0.0471
     16 H1         -3.1942   -2.5378    0.6240 H         1 <0>         0.1284
     17 C12        -1.1463   -2.0890   -0.0557 C.3       1 <0>         0.0141
     18 C13        -0.7445   -3.1372    0.9840 C.3       1 <0>        -0.1001
     19 C14        -1.3504   -2.7691    2.3398 C.3       1 <0>        -0.1160
     20 C15        -0.8471   -3.7451    3.4052 C.3       1 <0>         0.0575
     21 N3         -1.4289   -3.3918    4.7069 N.3       1 <0>        -0.5373
     22 C16        -0.9293   -2.0894    5.1712 C.3       1 <0>         0.0156
     23 C17        -1.6045   -1.7335    6.4984 C.3       1 <0>         0.0635
     24 O3         -1.3605   -2.7762    7.4463 O.3       1 <0>        -0.3846
     25 C18        -1.8348   -4.0585    7.0266 C.3       1 <0>         0.0632
     26 C19        -1.1620   -4.4379    5.7048 C.3       1 <0>         0.0172
     27 C20        -0.5448   -2.4083   -1.4000 C.ar      1 <0>        -0.0718
     28 C21         0.1372   -1.4317   -2.1016 C.ar      1 <0>        -0.1015
     29 C22         0.6889   -1.7246   -3.3347 C.ar      1 <0>        -0.1132
     30 C23         0.5592   -2.9941   -3.8661 C.ar      1 <0>        -0.1143
     31 C24        -0.1219   -3.9709   -3.1641 C.ar      1 <0>        -0.1133
     32 C25        -0.6700   -3.6792   -1.9290 C.ar      1 <0>        -0.1171
     33 Cl1        -6.2054    3.4147    0.1348 Cl        1 <0>        -0.0535
     34 H2          1.8574    1.2957    1.3511 H         1 <0>         0.0860
     35 H3          0.5372    1.8033    0.2705 H         1 <0>         0.0925
     36 H4          0.1970    1.4322    1.9777 H         1 <0>         0.0935
     37 H5         -3.8634    1.8837    0.6989 H         1 <0>         0.1490
     38 H6         -7.4414    1.5273   -1.5991 H         1 <0>         0.1473
     39 H7         -6.7462   -0.7001   -2.3654 H         1 <0>         0.1516
     40 H8         -3.0984   -3.4057   -1.7037 H         1 <0>         0.1284
     41 H9         -2.5685   -1.8106   -2.2986 H         1 <0>         0.0829
     42 H10        -1.1129   -4.1153    0.6748 H         1 <0>         0.0753
     43 H11         0.3419   -3.1679    1.0678 H         1 <0>         0.0925
     44 H12        -1.0538   -1.7549    2.6070 H         1 <0>         0.0638
     45 H13        -2.4373   -2.8259    2.2795 H         1 <0>         0.0680
     46 H14        -1.1437   -4.7594    3.1379 H         1 <0>         0.0777
     47 H15         0.2397   -3.6884    3.4655 H         1 <0>         0.0394
     48 H16         0.1498   -2.1437    5.3149 H         1 <0>         0.0442
     49 H17        -1.1603   -1.3253    4.4290 H         1 <0>         0.0851
     50 H18        -1.1953   -0.7961    6.8751 H         1 <0>         0.0985
     51 H19        -2.6781   -1.6265    6.3434 H         1 <0>         0.0592
     52 H20        -1.5922   -4.8025    7.7852 H         1 <0>         0.0992
     53 H21        -2.9151   -4.0190    6.8869 H         1 <0>         0.0598
     54 H22        -1.5627   -5.3882    5.3520 H         1 <0>         0.0868
     55 H23        -0.0866   -4.5298    5.8570 H         1 <0>         0.0440
     56 H24         0.2385   -0.4399   -1.6865 H         1 <0>         0.1159
     57 H25         1.2211   -0.9614   -3.8832 H         1 <0>         0.1243
     58 H26         0.9897   -3.2227   -4.8298 H         1 <0>         0.1249
     59 H27        -0.2236   -4.9627   -3.5794 H         1 <0>         0.1267
     60 H28        -1.1990   -4.4434   -1.3789 H         1 <0>         0.1250
@<TRIPOS>BOND
     1    1    2 1
     2    1   34 1
     3    1   35 1
     4    1   36 1
     5    2    3 2
     6    2    4 1
     7    4   17 1
     8    4    5 2
     9    5    6 1
    10    6   15 1
    11    6    7 1
    12    7   12 ar
    13    7    8 ar
    14    8    9 ar
    15    8   37 1
    16    9   10 ar
    17    9   33 1
    18   10   11 ar
    19   10   38 1
    20   11   12 ar
    21   11   39 1
    22   12   13 1
    23   13   14 1
    24   14   15 1
    25   14   40 1
    26   14   41 1
    27   15   16 1
    28   15   17 1
    29   17   18 1
    30   17   27 1
    31   18   19 1
    32   18   42 1
    33   18   43 1
    34   19   20 1
    35   19   44 1
    36   19   45 1
    37   20   21 1
    38   20   46 1
    39   20   47 1
    40   21   26 1
    41   21   22 1
    42   22   23 1
    43   22   48 1
    44   22   49 1
    45   23   24 1
    46   23   50 1
    47   23   51 1
    48   24   25 1
    49   25   26 1
    50   25   52 1
    51   25   53 1
    52   26   54 1
    53   26   55 1
    54   27   32 ar
    55   27   28 ar
    56   28   29 ar
    57   28   56 1
    58   29   30 ar
    59   29   57 1
    60   30   31 ar
    61   30   58 1
    62   31   32 ar
    63   31   59 1
    64   32   60 1
@<TRIPOS>MOLECULE
CHEMBL250533__1
   61    65     0     0     0
SMALL
USER_CHARGES

@<TRIPOS>ATOM
      1 C1          0.8025    1.1631    1.1122 C.3       1 <0>        -0.1976
      2 C2          0.5467   -0.2767    0.7481 C.2       1 <0>         0.4322
      3 O1          1.4607   -1.0769    0.7563 O.2       1 <0>        -0.4505
      4 C3         -0.7511   -0.6943    0.3987 C.2       1 <0>        -0.0944
      5 N1         -1.8209    0.0501    0.4035 N.2       1 <0>        -0.1170
      6 N2         -2.8859   -0.5056   -0.0065 N.pl3     1 <0>        -0.3714
      7 C4         -4.0991    0.0671   -0.4047 C.ar      1 <0>         0.1061
      8 C5         -4.4928    1.3184    0.0281 C.ar      1 <0>        -0.0843
      9 C6         -5.6995    1.8436   -0.4025 C.ar      1 <0>        -0.0419
     10 C7         -6.5020    1.1139   -1.2624 C.ar      1 <0>        -0.0781
     11 C8         -6.1120   -0.1394   -1.6942 C.ar      1 <0>        -0.1063
     12 C9         -4.9080   -0.6794   -1.2669 C.ar      1 <0>         0.1136
     13 O2         -4.5385   -1.9199   -1.6753 O.3       1 <0>        -0.3037
     14 C10        -3.1728   -2.3284   -1.5540 C.3       1 <0>         0.0593
     15 C11        -2.6775   -1.9691   -0.1493 C.3       1 <0>         0.0441
     16 H1         -3.1942   -2.5376    0.6240 H         1 <0>         0.1223
     17 C12        -1.1462   -2.0889   -0.0556 C.3       1 <0>         0.0184
     18 C13        -0.7445   -3.1372    0.9840 C.3       1 <0>        -0.0974
     19 C14        -1.3504   -2.7691    2.3398 C.3       1 <0>        -0.1548
     20 C15        -0.8471   -3.7451    3.4052 C.3       1 <0>        -0.0074
     21 N3         -1.4289   -3.3917    4.7069 N.4       1 <0>        -0.3856
     22 C16        -0.9325   -2.0730    5.1237 C.3       1 <0>        -0.0488
     23 C17        -1.5403   -1.7071    6.4801 C.3       1 <0>         0.0373
     24 O3         -1.2076   -2.7192    7.4344 O.3       1 <0>        -0.3552
     25 C18        -1.6496   -4.0273    7.0611 C.3       1 <0>         0.0357
     26 C19        -1.0421   -4.3976    5.7058 C.3       1 <0>        -0.0437
     27 C20        -0.5447   -2.4082   -1.4000 C.ar      1 <0>        -0.0836
     28 C21         0.1373   -1.4317   -2.1015 C.ar      1 <0>        -0.0991
     29 C22         0.6891   -1.7246   -3.3347 C.ar      1 <0>        -0.1099
     30 C23         0.5593   -2.9941   -3.8661 C.ar      1 <0>        -0.1066
     31 C24        -0.1219   -3.9709   -3.1641 C.ar      1 <0>        -0.1112
     32 C25        -0.6700   -3.6792   -1.9290 C.ar      1 <0>        -0.1187
     33 Cl1        -6.2049    3.4151    0.1349 Cl        1 <0>        -0.0454
     34 H2          1.8577    1.2955    1.3513 H         1 <0>         0.0891
     35 H3          0.5375    1.8032    0.2706 H         1 <0>         0.0960
     36 H4          0.1973    1.4320    1.9779 H         1 <0>         0.0923
     37 H5         -3.8631    1.8839    0.6990 H         1 <0>         0.1490
     38 H6         -7.4410    1.5279   -1.5990 H         1 <0>         0.1513
     39 H7         -6.7460   -0.6996   -2.3655 H         1 <0>         0.1547
     40 H8         -3.0983   -3.4055   -1.7037 H         1 <0>         0.1295
     41 H9         -2.5684   -1.8104   -2.2986 H         1 <0>         0.0859
     42 H10        -1.1129   -4.1153    0.6748 H         1 <0>         0.0871
     43 H11         0.3419   -3.1680    1.0678 H         1 <0>         0.1053
     44 H12        -1.0538   -1.7549    2.6070 H         1 <0>         0.0884
     45 H13        -2.4373   -2.8259    2.2795 H         1 <0>         0.0845
     46 H14        -1.1437   -4.7594    3.1379 H         1 <0>         0.1360
     47 H15         0.2397   -3.6884    3.4655 H         1 <0>         0.1358
     48 H16         0.1537   -2.1035    5.2083 H         1 <0>         0.1414
     49 H17        -1.2191   -1.3260    4.3834 H         1 <0>         0.1397
     50 H18        -1.1404   -0.7488    6.8115 H         1 <0>         0.1425
     51 H19        -2.6240   -1.6372    6.3865 H         1 <0>         0.0804
     52 H20        -1.3288   -4.7483    7.8130 H         1 <0>         0.1430
     53 H21        -2.7371   -4.0369    6.9873 H         1 <0>         0.0808
     54 H22        -1.4099   -5.3763    5.3976 H         1 <0>         0.1433
     55 H23         0.0443   -4.4272    5.7902 H         1 <0>         0.1403
     56 H24         0.2387   -0.4399   -1.6864 H         1 <0>         0.1160
     57 H25         1.2213   -0.9615   -3.8831 H         1 <0>         0.1278
     58 H26         0.9898   -3.2227   -4.8298 H         1 <0>         0.1291
     59 H27        -0.2237   -4.9626   -3.5794 H         1 <0>         0.1295
     60 H28        -1.1990   -4.4433   -1.3789 H         1 <0>         0.1229
     61 H29        -2.4346   -3.3638    4.6296 H         1 <0>         0.4214
@<TRIPOS>BOND
     1    1    2 1
     2    1   34 1
     3    1   35 1
     4    1   36 1
     5    2    3 2
     6    2    4 1
     7    4   17 1
     8    4    5 2
     9    5    6 1
    10    6   15 1
    11    6    7 1
    12    7   12 ar
    13    7    8 ar
    14    8    9 ar
    15    8   37 1
    16    9   10 ar
    17    9   33 1
    18   10   11 ar
    19   10   38 1
    20   11   12 ar
    21   11   39 1
    22   12   13 1
    23   13   14 1
    24   14   15 1
    25   14   40 1
    26   14   41 1
    27   15   16 1
    28   15   17 1
    29   17   18 1
    30   17   27 1
    31   18   19 1
    32   18   42 1
    33   18   43 1
    34   19   20 1
    35   19   44 1
    36   19   45 1
    37   20   21 1
    38   20   46 1
    39   20   47 1
    40   21   26 1
    41   21   22 1
    42   21   61 1
    43   22   23 1
    44   22   48 1
    45   22   49 1
    46   23   24 1
    47   23   50 1
    48   23   51 1
    49   24   25 1
    50   25   26 1
    51   25   52 1
    52   25   53 1
    53   26   54 1
    54   26   55 1
    55   27   32 ar
    56   27   28 ar
    57   28   29 ar
    58   28   56 1
    59   29   30 ar
    60   29   57 1
    61   30   31 ar
    62   30   58 1
    63   31   32 ar
    64   31   59 1
    65   32   60 1
@<TRIPOS>MOLECULE
CHEMBL250533__2
   60    64     0     0     0
SMALL
USER_CHARGES

@<TRIPOS>ATOM
      1 C1          0.0276    1.4647   -0.1520 C.3       1 <0>        -0.1939
      2 C2          0.0259   -0.0382   -0.0411 C.2       1 <0>         0.4242
      3 O1          1.0764   -0.6420    0.0474 O.2       1 <0>        -0.4326
      4 C3         -1.1927   -0.7424   -0.0400 C.2       1 <0>        -0.0742
      5 N1         -2.3823   -0.2114   -0.0011 N.2       1 <0>        -0.1270
      6 N2         -3.3553   -1.0234   -0.0707 N.pl3     1 <0>        -0.3807
      7 C4         -4.7048   -0.7825   -0.3525 C.ar      1 <0>         0.1196
      8 C5         -5.2852    0.4534   -0.1432 C.ar      1 <0>        -0.0876
      9 C6         -6.6230    0.6419   -0.4465 C.ar      1 <0>        -0.0405
     10 C7         -7.3691   -0.4063   -0.9569 C.ar      1 <0>        -0.0859
     11 C8         -6.7918   -1.6444   -1.1642 C.ar      1 <0>        -0.1074
     12 C9         -5.4539   -1.8484   -0.8601 C.ar      1 <0>         0.1102
     13 O2         -4.8958   -3.0719   -1.0439 O.3       1 <0>        -0.3042
     14 C10        -3.4718   -3.2012   -1.0922 C.3       1 <0>         0.0564
     15 C11        -2.8694   -2.4188    0.0794 C.3       1 <0>         0.0499
     16 H1         -3.1425   -2.8503    1.0423 H         1 <0>         0.1232
     17 C12        -1.3491   -2.2525   -0.0905 C.3       1 <0>         0.0136
     18 C13        -0.8826   -2.8059   -1.4385 C.3       1 <0>        -0.1038
     19 C14         0.6224   -2.5762   -1.5909 C.3       1 <0>        -0.1146
     20 C15         1.1159   -3.2596   -2.8677 C.3       1 <0>         0.0560
     21 N3          2.5608   -3.0391   -3.0140 N.3       1 <0>        -0.5322
     22 C16         2.8558   -1.6182   -3.2493 C.3       1 <0>         0.0165
     23 C17         4.3720   -1.4249   -3.3359 C.3       1 <0>         0.0635
     24 O3          4.8965   -2.2648   -4.3678 O.3       1 <0>        -0.3864
     25 C18         4.6280   -3.6556   -4.1701 C.3       1 <0>         0.0634
     26 C19         3.1144   -3.8715   -4.0920 C.3       1 <0>         0.0172
     27 C20        -0.6073   -2.9093    1.0450 C.ar      1 <0>        -0.0651
     28 C21        -0.0288   -2.1341    2.0326 C.ar      1 <0>        -0.0872
     29 C22         0.6516   -2.7366    3.0743 C.ar      1 <0>        -0.1163
     30 C23         0.7531   -4.1141    3.1285 C.ar      1 <0>        -0.1140
     31 C24         0.1737   -4.8893    2.1414 C.ar      1 <0>        -0.1172
     32 C25        -0.5103   -4.2870    1.1021 C.ar      1 <0>        -0.1099
     33 Cl1        -7.3632    2.1907   -0.1875 Cl        1 <0>        -0.0528
     34 H2          1.0548    1.8290   -0.1360 H         1 <0>         0.0865
     35 H3         -0.4483    1.7606   -1.0869 H         1 <0>         0.0913
     36 H4         -0.5224    1.8915    0.6867 H         1 <0>         0.0932
     37 H5         -4.6987    1.2682    0.2552 H         1 <0>         0.1492
     38 H6         -8.4114   -0.2549   -1.1957 H         1 <0>         0.1478
     39 H7         -7.3835   -2.4550   -1.5633 H         1 <0>         0.1521
     40 H8         -3.1969   -4.2528   -1.0097 H         1 <0>         0.1295
     41 H9         -3.0993   -2.7958   -2.0329 H         1 <0>         0.0851
     42 H10        -1.0937   -3.8742   -1.4853 H         1 <0>         0.0766
     43 H11        -1.4114   -2.2955   -2.2435 H         1 <0>         0.0671
     44 H12         0.8224   -1.5064   -1.6508 H         1 <0>         0.0777
     45 H13         1.1429   -2.9955   -0.7299 H         1 <0>         0.0863
     46 H14         0.9158   -4.3294   -2.8078 H         1 <0>         0.0729
     47 H15         0.5953   -2.8403   -3.7287 H         1 <0>         0.0296
     48 H16         2.3944   -1.3007   -4.1844 H         1 <0>         0.0387
     49 H17         2.4594   -1.0231   -2.4266 H         1 <0>         0.0924
     50 H18         4.5935   -0.3829   -3.5671 H         1 <0>         0.0973
     51 H19         4.8280   -1.6917   -2.3825 H         1 <0>         0.0610
     52 H20         5.0346   -4.2269   -5.0046 H         1 <0>         0.0976
     53 H21         5.0915   -3.9872   -3.2410 H         1 <0>         0.0602
     54 H22         2.9067   -4.9212   -3.8844 H         1 <0>         0.0852
     55 H23         2.6571   -3.5900   -5.0405 H         1 <0>         0.0410
     56 H24        -0.1080   -1.0579    1.9902 H         1 <0>         0.1144
     57 H25         1.1043   -2.1310    3.8455 H         1 <0>         0.1219
     58 H26         1.2853   -4.5848    3.9420 H         1 <0>         0.1223
     59 H27         0.2533   -5.9655    2.1837 H         1 <0>         0.1234
     60 H28        -0.9662   -4.8928    0.3329 H         1 <0>         0.1194
@<TRIPOS>BOND
     1    1    2 1
     2    1   34 1
     3    1   35 1
     4    1   36 1
     5    2    3 2
     6    2    4 1
     7    4   17 1
     8    4    5 2
     9    5    6 1
    10    6   15 1
    11    6    7 1
    12    7   12 ar
    13    7    8 ar
    14    8    9 ar
    15    8   37 1
    16    9   10 ar
    17    9   33 1
    18   10   11 ar
    19   10   38 1
    20   11   12 ar
    21   11   39 1
    22   12   13 1
    23   13   14 1
    24   14   15 1
    25   14   40 1
    26   14   41 1
    27   15   16 1
    28   15   17 1
    29   17   18 1
    30   17   27 1
    31   18   19 1
    32   18   42 1
    33   18   43 1
    34   19   20 1
    35   19   44 1
    36   19   45 1
    37   20   21 1
    38   20   46 1
    39   20   47 1
    40   21   26 1
    41   21   22 1
    42   22   23 1
    43   22   48 1
    44   22   49 1
    45   23   24 1
    46   23   50 1
    47   23   51 1
    48   24   25 1
    49   25   26 1
    50   25   52 1
    51   25   53 1
    52   26   54 1
    53   26   55 1
    54   27   32 ar
    55   27   28 ar
    56   28   29 ar
    57   28   56 1
    58   29   30 ar
    59   29   57 1
    60   30   31 ar
    61   30   58 1
    62   31   32 ar
    63   31   59 1
    64   32   60 1
@<TRIPOS>MOLECULE
CHEMBL250533__3
   61    65     0     0     0
SMALL
USER_CHARGES

@<TRIPOS>ATOM
      1 C1          0.0277    1.4646   -0.1515 C.3       1 <0>        -0.1994
      2 C2          0.0259   -0.0383   -0.0408 C.2       1 <0>         0.4416
      3 O1          1.0764   -0.6421    0.0475 O.2       1 <0>        -0.4656
      4 C3         -1.1927   -0.7424   -0.0397 C.2       1 <0>        -0.1075
      5 N1         -2.3822   -0.2114   -0.0007 N.2       1 <0>        -0.1064
      6 N2         -3.3553   -1.0234   -0.0703 N.pl3     1 <0>        -0.3672
      7 C4         -4.7048   -0.7824   -0.3520 C.ar      1 <0>         0.1065
      8 C5         -5.2851    0.4535   -0.1424 C.ar      1 <0>        -0.0825
      9 C6         -6.6230    0.6421   -0.4456 C.ar      1 <0>        -0.0400
     10 C7         -7.3691   -0.4060   -0.9562 C.ar      1 <0>        -0.0777
     11 C8         -6.7919   -1.6442   -1.1637 C.ar      1 <0>        -0.1052
     12 C9         -5.4540   -1.8482   -0.8597 C.ar      1 <0>         0.1121
     13 O2         -4.8959   -3.0717   -1.0438 O.3       1 <0>        -0.3012
     14 C10        -3.4719   -3.2010   -1.0922 C.3       1 <0>         0.0579
     15 C11        -2.8695   -2.4188    0.0795 C.3       1 <0>         0.0471
     16 H1         -3.1425   -2.8505    1.0424 H         1 <0>         0.1281
     17 C12        -1.3491   -2.2525   -0.0905 C.3       1 <0>         0.0188
     18 C13        -0.8827   -2.8057   -1.4386 C.3       1 <0>        -0.1010
     19 C14         0.6222   -2.5760   -1.5910 C.3       1 <0>        -0.1524
     20 C15         1.1156   -3.2593   -2.8680 C.3       1 <0>        -0.0112
     21 N3          2.5606   -3.0387   -3.0143 N.4       1 <0>        -0.3830
     22 C16         2.8197   -1.6065   -3.2160 C.3       1 <0>        -0.0487
     23 C17         4.3259   -1.3793   -3.3679 C.3       1 <0>         0.0375
     24 O3          4.8124   -2.1605   -4.4629 O.3       1 <0>        -0.3571
     25 C18         4.5621   -3.5619   -4.3239 C.3       1 <0>         0.0358
     26 C19         3.0564   -3.7931   -4.1738 C.3       1 <0>        -0.0436
     27 C20        -0.6073   -2.9095    1.0449 C.ar      1 <0>        -0.0782
     28 C21        -0.0286   -2.1345    2.0326 C.ar      1 <0>        -0.0849
     29 C22         0.6518   -2.7372    3.0741 C.ar      1 <0>        -0.1135
     30 C23         0.7532   -4.1147    3.1281 C.ar      1 <0>        -0.1089
     31 C24         0.1738   -4.8897    2.1409 C.ar      1 <0>        -0.1175
     32 C25        -0.5104   -4.2873    1.1017 C.ar      1 <0>        -0.1171
     33 Cl1        -7.3632    2.1908   -0.1863 Cl        1 <0>        -0.0437
     34 H2          1.0549    1.8289   -0.1355 H         1 <0>         0.0882
     35 H3         -0.4483    1.7607   -1.0863 H         1 <0>         0.0950
     36 H4         -0.5223    1.8914    0.6873 H         1 <0>         0.0987
     37 H5         -4.6987    1.2681    0.2561 H         1 <0>         0.1507
     38 H6         -8.4115   -0.2547   -1.1948 H         1 <0>         0.1521
     39 H7         -7.3836   -2.4547   -1.5629 H         1 <0>         0.1553
     40 H8         -3.1971   -4.2526   -1.0099 H         1 <0>         0.1289
     41 H9         -3.0995   -2.7955   -2.0329 H         1 <0>         0.0818
     42 H10        -1.0938   -3.8740   -1.4856 H         1 <0>         0.0872
     43 H11        -1.4116   -2.2951   -2.2434 H         1 <0>         0.0810
     44 H12         0.8223   -1.5062   -1.6508 H         1 <0>         0.1019
     45 H13         1.1428   -2.9955   -0.7301 H         1 <0>         0.1017
     46 H14         0.9156   -4.3291   -2.8082 H         1 <0>         0.1309
     47 H15         0.5951   -2.8398   -3.7289 H         1 <0>         0.1275
     48 H16         2.3082   -1.2677   -4.1169 H         1 <0>         0.1367
     49 H17         2.4524   -1.0460   -2.3563 H         1 <0>         0.1468
     50 H18         4.5171   -0.3237   -3.5605 H         1 <0>         0.1415
     51 H19         4.8337   -1.6807   -2.4518 H         1 <0>         0.0818
     52 H20         4.9244   -4.0858   -5.2084 H         1 <0>         0.1414
     53 H21         5.0780   -3.9380   -3.4405 H         1 <0>         0.0809
     54 H22         2.8648   -4.8558   -4.0251 H         1 <0>         0.1417
     55 H23         2.5448   -3.4535   -5.0743 H         1 <0>         0.1379
     56 H24        -0.1078   -1.0583    1.9903 H         1 <0>         0.1165
     57 H25         1.1046   -2.1317    3.8453 H         1 <0>         0.1256
     58 H26         1.2855   -4.5855    3.9414 H         1 <0>         0.1264
     59 H27         0.2533   -5.9659    2.1830 H         1 <0>         0.1262
     60 H28        -0.9663   -4.8929    0.3325 H         1 <0>         0.1198
     61 H29         3.0350   -3.3525   -2.1809 H         1 <0>         0.4242
@<TRIPOS>BOND
     1    1    2 1
     2    1   34 1
     3    1   35 1
     4    1   36 1
     5    2    3 2
     6    2    4 1
     7    4   17 1
     8    4    5 2
     9    5    6 1
    10    6   15 1
    11    6    7 1
    12    7   12 ar
    13    7    8 ar
    14    8    9 ar
    15    8   37 1
    16    9   10 ar
    17    9   33 1
    18   10   11 ar
    19   10   38 1
    20   11   12 ar
    21   11   39 1
    22   12   13 1
    23   13   14 1
    24   14   15 1
    25   14   40 1
    26   14   41 1
    27   15   16 1
    28   15   17 1
    29   17   18 1
    30   17   27 1
    31   18   19 1
    32   18   42 1
    33   18   43 1
    34   19   20 1
    35   19   44 1
    36   19   45 1
    37   20   21 1
    38   20   46 1
    39   20   47 1
    40   21   26 1
    41   21   22 1
    42   21   61 1
    43   22   23 1
    44   22   48 1
    45   22   49 1
    46   23   24 1
    47   23   50 1
    48   23   51 1
    49   24   25 1
    50   25   26 1
    51   25   52 1
    52   25   53 1
    53   26   54 1
    54   26   55 1
    55   27   32 ar
    56   27   28 ar
    57   28   29 ar
    58   28   56 1
    59   29   30 ar
    60   29   57 1
    61   30   31 ar
    62   30   58 1
    63   31   32 ar
    64   31   59 1
    65   32   60 1
@<TRIPOS>MOLECULE
CHEMBL398478
   60    64     0     0     0
SMALL
USER_CHARGES

@<TRIPOS>ATOM
      1 C1          0.8024    1.1628    1.1137 C.3       1 <0>        -0.1948
      2 C2          0.5465   -0.2770    0.7498 C.2       1 <0>         0.4319
      3 O1          1.4603   -1.0774    0.7587 O.2       1 <0>        -0.4482
      4 C3         -0.7512   -0.6944    0.3997 C.2       1 <0>        -0.0738
      5 N1         -1.8209    0.0500    0.4044 N.2       1 <0>        -0.1264
      6 N2         -2.8857   -0.5053   -0.0069 N.pl3     1 <0>        -0.3771
      7 C4         -4.0985    0.0679   -0.4054 C.ar      1 <0>         0.1361
      8 C5         -4.4923    1.3189    0.0287 C.ar      1 <0>        -0.1321
      9 C6         -5.6993    1.8450   -0.4024 C.ar      1 <0>         0.0984
     10 C7         -6.5014    1.1154   -1.2643 C.ar      1 <0>        -0.1292
     11 C8         -6.1109   -0.1377   -1.6960 C.ar      1 <0>        -0.0911
     12 C9         -4.9068   -0.6775   -1.2689 C.ar      1 <0>         0.0969
     13 O2         -4.5369   -1.9179   -1.6785 O.3       1 <0>        -0.3055
     14 C10        -3.1713   -2.3265   -1.5565 C.3       1 <0>         0.0609
     15 C11        -2.6772   -1.9686   -0.1510 C.3       1 <0>         0.0472
     16 H1         -3.1945   -2.5380    0.6212 H         1 <0>         0.1287
     17 C12        -1.1461   -2.0889   -0.0555 C.3       1 <0>         0.0137
     18 C13        -0.7456   -3.1375    0.9842 C.3       1 <0>        -0.1001
     19 C14        -1.3524   -2.7694    2.3397 C.3       1 <0>        -0.1162
     20 C15        -0.8502   -3.7458    3.4053 C.3       1 <0>         0.0575
     21 N3         -1.4328   -3.3924    4.7067 N.3       1 <0>        -0.5374
     22 C16        -0.9331   -2.0903    5.1715 C.3       1 <0>         0.0156
     23 C17        -1.6091   -1.7344    6.4982 C.3       1 <0>         0.0634
     24 O3         -1.3661   -2.7773    7.4462 O.3       1 <0>        -0.3846
     25 C18        -1.8406   -4.0593    7.0259 C.3       1 <0>         0.0631
     26 C19        -1.1670   -4.4388    5.7045 C.3       1 <0>         0.0171
     27 C20        -0.5433   -2.4079   -1.3993 C.ar      1 <0>        -0.0718
     28 C21         0.1392   -1.4312   -2.1001 C.ar      1 <0>        -0.1017
     29 C22         0.6922   -1.7238   -3.3328 C.ar      1 <0>        -0.1131
     30 C23         0.5630   -2.9932   -3.8645 C.ar      1 <0>        -0.1142
     31 C24        -0.1188   -3.9702   -3.1633 C.ar      1 <0>        -0.1132
     32 C25        -0.6680   -3.6787   -1.9287 C.ar      1 <0>        -0.1169
     33 F1         -6.0934    3.0672    0.0175 F         1 <0>        -0.1302
     34 H2          1.8574    1.2950    1.3534 H         1 <0>         0.0862
     35 H3          0.5381    1.8028    0.2719 H         1 <0>         0.0926
     36 H4          0.1967    1.4320    1.9790 H         1 <0>         0.0935
     37 H5         -3.8629    1.8835    0.7006 H         1 <0>         0.1510
     38 H6         -7.4402    1.5294   -1.6014 H         1 <0>         0.1497
     39 H7         -6.7444   -0.6979   -2.3678 H         1 <0>         0.1525
     40 H8         -3.0967   -3.4034   -1.7074 H         1 <0>         0.1284
     41 H9         -2.5664   -1.8076   -2.3001 H         1 <0>         0.0825
     42 H10        -1.1143   -4.1154    0.6746 H         1 <0>         0.0756
     43 H11         0.3406   -3.1688    1.0689 H         1 <0>         0.0925
     44 H12        -1.0556   -1.7553    2.6073 H         1 <0>         0.0637
     45 H13        -2.4392   -2.8258    2.2786 H         1 <0>         0.0682
     46 H14        -1.1470   -4.7599    3.1376 H         1 <0>         0.0778
     47 H15         0.2366   -3.6894    3.4664 H         1 <0>         0.0394
     48 H16         0.1459   -2.1450    5.3160 H         1 <0>         0.0442
     49 H17        -1.1633   -1.3260    4.4292 H         1 <0>         0.0851
     50 H18        -1.1998   -0.7971    6.8754 H         1 <0>         0.0985
     51 H19        -2.6826   -1.6269    6.3425 H         1 <0>         0.0592
     52 H20        -1.5988   -4.8036    7.7846 H         1 <0>         0.0993
     53 H21        -2.9208   -4.0195    6.8855 H         1 <0>         0.0599
     54 H22        -1.5678   -5.3889    5.3513 H         1 <0>         0.0869
     55 H23        -0.0917   -4.5311    5.8575 H         1 <0>         0.0440
     56 H24         0.2402   -0.4394   -1.6847 H         1 <0>         0.1158
     57 H25         1.2248   -0.9605   -3.8806 H         1 <0>         0.1243
     58 H26         0.9944   -3.2216   -4.8279 H         1 <0>         0.1249
     59 H27        -0.2200   -4.9619   -3.5788 H         1 <0>         0.1268
     60 H28        -1.1975   -4.4430   -1.3792 H         1 <0>         0.1251
@<TRIPOS>BOND
     1    1    2 1
     2    1   34 1
     3    1   35 1
     4    1   36 1
     5    2    3 2
     6    2    4 1
     7    4   17 1
     8    4    5 2
     9    5    6 1
    10    6   15 1
    11    6    7 1
    12    7   12 ar
    13    7    8 ar
    14    8    9 ar
    15    8   37 1
    16    9   10 ar
    17    9   33 1
    18   10   11 ar
    19   10   38 1
    20   11   12 ar
    21   11   39 1
    22   12   13 1
    23   13   14 1
    24   14   15 1
    25   14   40 1
    26   14   41 1
    27   15   16 1
    28   15   17 1
    29   17   18 1
    30   17   27 1
    31   18   19 1
    32   18   42 1
    33   18   43 1
    34   19   20 1
    35   19   44 1
    36   19   45 1
    37   20   21 1
    38   20   46 1
    39   20   47 1
    40   21   26 1
    41   21   22 1
    42   22   23 1
    43   22   48 1
    44   22   49 1
    45   23   24 1
    46   23   50 1
    47   23   51 1
    48   24   25 1
    49   25   26 1
    50   25   52 1
    51   25   53 1
    52   26   54 1
    53   26   55 1
    54   27   32 ar
    55   27   28 ar
    56   28   29 ar
    57   28   56 1
    58   29   30 ar
    59   29   57 1
    60   30   31 ar
    61   30   58 1
    62   31   32 ar
    63   31   59 1
    64   32   60 1
@<TRIPOS>MOLECULE
CHEMBL398478__1
   61    65     0     0     0
SMALL
USER_CHARGES

@<TRIPOS>ATOM
      1 C1         -1.1456    1.1316    0.8203 C.3       1 <0>        -0.1997
      2 C2         -0.7442   -0.2940    0.5417 C.2       1 <0>         0.4321
      3 O1         -0.7259   -1.1072    1.4441 O.2       1 <0>        -0.4507
      4 C3         -0.3906   -0.6833   -0.7637 C.2       1 <0>        -0.0919
      5 N1         -0.4015    0.0817   -1.8188 N.2       1 <0>        -0.1178
      6 N2          0.0144   -0.4494   -2.8941 N.pl3     1 <0>        -0.3723
      7 C4          0.4081    0.1505   -4.0955 C.ar      1 <0>         0.1234
      8 C5         -0.0363    1.4052   -4.4650 C.ar      1 <0>        -0.1302
      9 C6          0.3904    1.9582   -5.6616 C.ar      1 <0>         0.1015
     10 C7          1.2583    1.2515   -6.4775 C.ar      1 <0>        -0.1216
     11 C8          1.7004   -0.0054   -6.1113 C.ar      1 <0>        -0.0886
     12 C9          1.2778   -0.5720   -4.9180 C.ar      1 <0>         0.0986
     13 O2          1.6977   -1.8158   -4.5721 O.3       1 <0>        -0.3036
     14 C10         1.5791   -2.2518   -3.2147 C.3       1 <0>         0.0595
     15 C11         0.1707   -1.9152   -2.7139 C.3       1 <0>         0.0442
     16 H1         -0.5968   -2.4809   -3.2423 H         1 <0>         0.1227
     17 C12         0.0761   -2.0659   -1.1855 C.3       1 <0>         0.0179
     18 C13        -0.9548   -3.1307   -0.8056 C.3       1 <0>        -0.0973
     19 C14        -2.3133   -2.7621   -1.4052 C.3       1 <0>        -0.1551
     20 C15        -3.3708   -3.7567   -0.9220 C.3       1 <0>        -0.0073
     21 N3         -4.6752   -3.4029   -1.4977 N.4       1 <0>        -0.3856
     22 C16        -5.1032   -2.0977   -0.9757 C.3       1 <0>        -0.0488
     23 C17        -6.4623   -1.7312   -1.5772 C.3       1 <0>         0.0373
     24 O3         -7.4083   -2.7576   -1.2652 O.3       1 <0>        -0.3552
     25 C18        -7.0238   -4.0536   -1.7326 C.3       1 <0>         0.0357
     26 C19        -5.6658   -4.4245   -1.1315 C.3       1 <0>        -0.0436
     27 C20         1.4225   -2.3854   -0.5888 C.ar      1 <0>        -0.0835
     28 C21         2.1153   -1.4162    0.1124 C.ar      1 <0>        -0.0989
     29 C22         3.3504   -1.7092    0.6597 C.ar      1 <0>        -0.1100
     30 C23         3.8925   -2.9715    0.5064 C.ar      1 <0>        -0.1066
     31 C24         3.1993   -3.9410   -0.1940 C.ar      1 <0>        -0.1112
     32 C25         1.9623   -3.6493   -0.7377 C.ar      1 <0>        -0.1185
     33 F1         -0.0396    3.1842   -6.0320 F         1 <0>        -0.1262
     34 H2         -0.2618    1.7134    1.0820 H         1 <0>         0.1010
     35 H3         -1.6114    1.5581   -0.0682 H         1 <0>         0.0880
     36 H4         -1.8540    1.1544    1.6484 H         1 <0>         0.0907
     37 H5         -0.7130    1.9519   -3.8249 H         1 <0>         0.1512
     38 H6          1.5920    1.6863   -7.4081 H         1 <0>         0.1539
     39 H7          2.3768   -0.5476   -6.7554 H         1 <0>         0.1558
     40 H8          1.7389   -3.3287   -3.1610 H         1 <0>         0.1295
     41 H9          2.3184   -1.7386   -2.5997 H         1 <0>         0.0856
     42 H10        -0.6372   -4.0987   -1.1932 H         1 <0>         0.0875
     43 H11        -1.0391   -3.1839    0.2798 H         1 <0>         0.1050
     44 H12        -2.5892   -1.7562   -1.0889 H         1 <0>         0.0885
     45 H13        -2.2519   -2.7969   -2.4929 H         1 <0>         0.0847
     46 H14        -3.0949   -4.7627   -1.2383 H         1 <0>         0.1361
     47 H15        -3.4322   -3.7219    0.1657 H         1 <0>         0.1358
     48 H16        -5.1882   -2.1503    0.1097 H         1 <0>         0.1413
     49 H17        -4.3691   -1.3391   -1.2470 H         1 <0>         0.1399
     50 H18        -6.8020   -0.7838   -1.1587 H         1 <0>         0.1425
     51 H19        -6.3686   -1.6392   -2.6592 H         1 <0>         0.0804
     52 H20        -7.7698   -4.7870   -1.4266 H         1 <0>         0.1430
     53 H21        -6.9493   -4.0411   -2.8200 H         1 <0>         0.0808
     54 H22        -5.3492   -5.3931   -1.5183 H         1 <0>         0.1433
     55 H23        -5.7505   -4.4762   -0.0460 H         1 <0>         0.1403
     56 H24         1.6918   -0.4299    0.2322 H         1 <0>         0.1157
     57 H25         3.8920   -0.9518    1.2069 H         1 <0>         0.1277
     58 H26         4.8577   -3.2003    0.9334 H         1 <0>         0.1291
     59 H27         3.6229   -4.9272   -0.3141 H         1 <0>         0.1296
     60 H28         1.4190   -4.4078   -1.2817 H         1 <0>         0.1230
     61 H29        -4.5975   -3.3545   -2.5025 H         1 <0>         0.4215
@<TRIPOS>BOND
     1    1    2 1
     2    1   34 1
     3    1   35 1
     4    1   36 1
     5    2    3 2
     6    2    4 1
     7    4   17 1
     8    4    5 2
     9    5    6 1
    10    6   15 1
    11    6    7 1
    12    7   12 ar
    13    7    8 ar
    14    8    9 ar
    15    8   37 1
    16    9   10 ar
    17    9   33 1
    18   10   11 ar
    19   10   38 1
    20   11   12 ar
    21   11   39 1
    22   12   13 1
    23   13   14 1
    24   14   15 1
    25   14   40 1
    26   14   41 1
    27   15   16 1
    28   15   17 1
    29   17   18 1
    30   17   27 1
    31   18   19 1
    32   18   42 1
    33   18   43 1
    34   19   20 1
    35   19   44 1
    36   19   45 1
    37   20   21 1
    38   20   46 1
    39   20   47 1
    40   21   26 1
    41   21   22 1
    42   21   61 1
    43   22   23 1
    44   22   48 1
    45   22   49 1
    46   23   24 1
    47   23   50 1
    48   23   51 1
    49   24   25 1
    50   25   26 1
    51   25   52 1
    52   25   53 1
    53   26   54 1
    54   26   55 1
    55   27   32 ar
    56   27   28 ar
    57   28   29 ar
    58   28   56 1
    59   29   30 ar
    60   29   57 1
    61   30   31 ar
    62   30   58 1
    63   31   32 ar
    64   31   59 1
    65   32   60 1
@<TRIPOS>MOLECULE
CHEMBL247044
   57    59     0     0     0
SMALL
USER_CHARGES

@<TRIPOS>ATOM
      1 C1         -0.2048    0.9747   -0.5338 C.3       1 <0>        -0.1219
      2 C2         -0.1144   -0.5219   -0.3821 C.ar      1 <0>        -0.0758
      3 C3         -0.0798   -1.3287   -1.5050 C.ar      1 <0>        -0.0722
      4 C4          0.0036   -2.7024   -1.3717 C.ar      1 <0>        -0.1389
      5 C5          0.0524   -3.2745   -0.1135 C.ar      1 <0>         0.1056
      6 C6          0.0177   -2.4649    1.0179 C.ar      1 <0>         0.1174
      7 C7         -0.0604   -1.0849    0.8778 C.ar      1 <0>        -0.0759
      8 N1          0.0662   -3.0378    2.2904 N.pl3     1 <0>        -0.3918
      9 C8          1.2920   -3.2098    3.0865 C.3       1 <0>         0.0679
     10 C9          0.7721   -3.8799    4.3779 C.3       1 <0>         0.0107
     11 C10        -0.7158   -3.9864    4.1027 C.2       1 <0>        -0.0958
     12 N2         -0.9479   -3.4808    2.9283 N.2       1 <0>        -0.1191
     13 C11        -1.6791   -4.5334    4.9714 C.2       1 <0>         0.4333
     14 O1         -1.3561   -4.8987    6.0839 O.2       1 <0>        -0.4546
     15 C12        -3.1112   -4.6656    4.5211 C.3       1 <0>        -0.1999
     16 C13         1.3939   -5.2656    4.5626 C.3       1 <0>        -0.1001
     17 C14         0.9646   -6.1751    3.4096 C.3       1 <0>        -0.1534
     18 C15         1.6908   -7.5172    3.5210 C.3       1 <0>        -0.0094
     19 N3          1.2786   -8.3903    2.4139 N.4       1 <0>        -0.3876
     20 C16         2.0628   -9.6319    2.4515 C.3       1 <0>        -0.0472
     21 C17        -0.1493   -8.7088    2.5470 C.3       1 <0>        -0.0529
     22 C18         1.0360   -3.0095    5.5795 C.ar      1 <0>        -0.0707
     23 C19         1.9138   -3.4325    6.5600 C.ar      1 <0>        -0.1080
     24 C20         2.1558   -2.6340    7.6622 C.ar      1 <0>        -0.1139
     25 C21         1.5204   -1.4124    7.7836 C.ar      1 <0>        -0.1116
     26 C22         0.6433   -0.9890    6.8026 C.ar      1 <0>        -0.1126
     27 C23         0.4046   -1.7855    5.6983 C.ar      1 <0>        -0.1082
     28 F1          0.1330   -4.6168    0.0169 F         1 <0>        -0.1401
     29 H1          0.7991    1.3958   -0.5874 H         1 <0>         0.0807
     30 H2         -0.7489    1.2151   -1.4472 H         1 <0>         0.0776
     31 H3         -0.7301    1.3957    0.3235 H         1 <0>         0.0736
     32 H4         -0.1184   -0.8845   -2.4886 H         1 <0>         0.1452
     33 H5          0.0304   -3.3292   -2.2508 H         1 <0>         0.1471
     34 H6         -0.0833   -0.4532    1.7535 H         1 <0>         0.1397
     35 H7          1.9985   -3.8607    2.5714 H         1 <0>         0.0913
     36 H8          1.7465   -2.2443    3.3087 H         1 <0>         0.0973
     37 H9         -3.2082   -4.2885    3.5030 H         1 <0>         0.0857
     38 H10        -3.4056   -5.7147    4.5496 H         1 <0>         0.0910
     39 H11        -3.7555   -4.0892    5.1850 H         1 <0>         0.0962
     40 H12         2.4804   -5.1781    4.5712 H         1 <0>         0.0846
     41 H13         1.0563   -5.6924    5.5070 H         1 <0>         0.0979
     42 H14        -0.1118   -6.3393    3.4578 H         1 <0>         0.0897
     43 H15         1.2180   -5.7026    2.4605 H         1 <0>         0.0846
     44 H16         2.7673   -7.3529    3.4728 H         1 <0>         0.1318
     45 H17         1.4374   -7.9896    4.4701 H         1 <0>         0.1330
     46 H18         1.8910  -10.1416    3.3996 H         1 <0>         0.1228
     47 H19         1.7569  -10.2798    1.6301 H         1 <0>         0.1246
     48 H20         3.1223   -9.3956    2.3528 H         1 <0>         0.1231
     49 H21        -0.3211   -9.2185    3.4951 H         1 <0>         0.1240
     50 H22        -0.7312   -7.7875    2.5191 H         1 <0>         0.1227
     51 H23        -0.4551   -9.3567    1.7256 H         1 <0>         0.1252
     52 H24         2.4102   -4.3869    6.4651 H         1 <0>         0.1223
     53 H25         2.8411   -2.9648    8.4286 H         1 <0>         0.1258
     54 H26         1.7090   -0.7889    8.6450 H         1 <0>         0.1261
     55 H27         0.1467   -0.0347    6.8976 H         1 <0>         0.1248
     56 H28        -0.2778   -1.4531    4.9301 H         1 <0>         0.1121
     57 H29         1.4376   -7.9185    1.5363 H         1 <0>         0.4261
@<TRIPOS>BOND
     1    1    2 1
     2    1   29 1
     3    1   30 1
     4    1   31 1
     5    2    7 ar
     6    2    3 ar
     7    3    4 ar
     8    3   32 1
     9    4    5 ar
    10    4   33 1
    11    5    6 ar
    12    5   28 1
    13    6    7 ar
    14    6    8 1
    15    7   34 1
    16    8   12 1
    17    8    9 1
    18    9   10 1
    19    9   35 1
    20    9   36 1
    21   10   11 1
    22   10   16 1
    23   10   22 1
    24   11   12 2
    25   11   13 1
    26   13   14 2
    27   13   15 1
    28   15   37 1
    29   15   38 1
    30   15   39 1
    31   16   17 1
    32   16   40 1
    33   16   41 1
    34   17   18 1
    35   17   42 1
    36   17   43 1
    37   18   19 1
    38   18   44 1
    39   18   45 1
    40   19   20 1
    41   19   21 1
    42   19   57 1
    43   20   46 1
    44   20   47 1
    45   20   48 1
    46   21   49 1
    47   21   50 1
    48   21   51 1
    49   22   27 ar
    50   22   23 ar
    51   23   24 ar
    52   23   52 1
    53   24   25 ar
    54   24   53 1
    55   25   26 ar
    56   25   54 1
    57   26   27 ar
    58   26   55 1
    59   27   56 1
@<TRIPOS>MOLECULE
CHEMBL246001
   58    61     0     0     0
SMALL
USER_CHARGES

@<TRIPOS>ATOM
      1 C1         -0.3884    1.6339    0.5397 C.3       1 <0>        -0.1934
      2 C2         -0.2127    0.1470    0.3684 C.2       1 <0>         0.4349
      3 O1          0.9001   -0.3397    0.3902 O.2       1 <0>        -0.4531
      4 C3         -1.3383   -0.6781    0.1831 C.2       1 <0>        -0.0682
      5 N1         -2.5792   -0.2943    0.2211 N.2       1 <0>        -0.1302
      6 N2         -3.4595   -1.1993    0.0268 N.pl3     1 <0>        -0.3931
      7 C4         -2.8171   -2.5037   -0.2006 C.3       1 <0>         0.0672
      8 C5         -1.3123   -2.1677   -0.1019 C.3       1 <0>         0.0063
      9 C6         -0.6586   -2.9330    1.0505 C.3       1 <0>        -0.1044
     10 C7         -1.3673   -2.5845    2.3610 C.3       1 <0>        -0.1145
     11 C8         -0.7503   -3.3919    3.5048 C.3       1 <0>         0.0572
     12 N3         -1.4307   -3.0574    4.7630 N.3       1 <0>        -0.5366
     13 C9         -1.1703   -1.6627    5.1481 C.3       1 <0>         0.0159
     14 C10        -1.9441   -1.3396    6.4289 C.3       1 <0>         0.0639
     15 O2         -1.5673   -2.2635    7.4535 O.3       1 <0>        -0.3850
     16 C11        -1.8078   -3.6313    7.1121 C.3       1 <0>         0.0635
     17 C12        -1.0325   -3.9776    5.8381 C.3       1 <0>         0.0171
     18 C13        -0.6083   -2.4542   -1.4032 C.ar      1 <0>        -0.0657
     19 C14         0.4474   -3.3460   -1.4361 C.ar      1 <0>        -0.1017
     20 C15         1.0932   -3.6089   -2.6298 C.ar      1 <0>        -0.1160
     21 C16         0.6830   -2.9802   -3.7905 C.ar      1 <0>        -0.1169
     22 C17        -0.3733   -2.0891   -3.7578 C.ar      1 <0>        -0.1168
     23 C18        -1.0218   -1.8295   -2.5649 C.ar      1 <0>        -0.1125
     24 C19        -4.8387   -0.9814    0.0302 C.ar      1 <0>         0.1629
     25 C20        -5.6069   -1.3654   -1.0617 C.ar      1 <0>        -0.1334
     26 C21        -6.9727   -1.1480   -1.0548 C.ar      1 <0>         0.1113
     27 C22        -7.5747   -0.5482    0.0391 C.ar      1 <0>        -0.1207
     28 C23        -6.8131   -0.1648    1.1274 C.ar      1 <0>        -0.1086
     29 C24        -5.4477   -0.3843    1.1298 C.ar      1 <0>         0.1000
     30 F1         -4.7052   -0.0147    2.1963 F         1 <0>        -0.1190
     31 F2         -7.7205   -1.5207   -2.1164 F         1 <0>        -0.1262
     32 H1          0.5871    2.1024    0.6697 H         1 <0>         0.0838
     33 H2         -0.8747    2.0465   -0.3443 H         1 <0>         0.0911
     34 H3         -1.0047    1.8282    1.4175 H         1 <0>         0.0928
     35 H4         -3.1081   -3.2169    0.5706 H         1 <0>         0.1004
     36 H5         -3.0596   -2.8856   -1.1923 H         1 <0>         0.0935
     37 H6         -0.7396   -4.0044    0.8674 H         1 <0>         0.0750
     38 H7          0.3930   -2.6549    1.1211 H         1 <0>         0.0884
     39 H8         -1.2521   -1.5199    2.5644 H         1 <0>         0.0643
     40 H9         -2.4269   -2.8257    2.2763 H         1 <0>         0.0678
     41 H10        -0.8655   -4.4566    3.3014 H         1 <0>         0.0765
     42 H11         0.3093   -3.1508    3.5895 H         1 <0>         0.0380
     43 H12        -0.1031   -1.5267    5.3234 H         1 <0>         0.0433
     44 H13        -1.4961   -0.9974    4.3484 H         1 <0>         0.0868
     45 H14        -1.7094   -0.3247    6.7498 H         1 <0>         0.0983
     46 H15        -3.0141   -1.4235    6.2387 H         1 <0>         0.0593
     47 H16        -1.4744   -4.2739    7.9270 H         1 <0>         0.0986
     48 H17        -2.8738   -3.7819    6.9417 H         1 <0>         0.0594
     49 H18        -1.2577   -5.0022    5.5422 H         1 <0>         0.0861
     50 H19         0.0368   -3.8786    6.0245 H         1 <0>         0.0435
     51 H20         0.7679   -3.8372   -0.5292 H         1 <0>         0.1270
     52 H21         1.9185   -4.3051   -2.6554 H         1 <0>         0.1241
     53 H22         1.1880   -3.1850   -4.7230 H         1 <0>         0.1226
     54 H23        -0.6936   -1.5977   -4.6646 H         1 <0>         0.1220
     55 H24        -1.8495   -1.1361   -2.5399 H         1 <0>         0.1125
     56 H25        -5.1381   -1.8328   -1.9150 H         1 <0>         0.1504
     57 H26        -8.6414   -0.3793    0.0416 H         1 <0>         0.1540
     58 H27        -7.2857    0.3027    1.9786 H         1 <0>         0.1566
@<TRIPOS>BOND
     1    1    2 1
     2    1   32 1
     3    1   33 1
     4    1   34 1
     5    2    3 2
     6    2    4 1
     7    4    8 1
     8    4    5 2
     9    5    6 1
    10    6    7 1
    11    6   24 1
    12    7    8 1
    13    7   35 1
    14    7   36 1
    15    8    9 1
    16    8   18 1
    17    9   10 1
    18    9   37 1
    19    9   38 1
    20   10   11 1
    21   10   39 1
    22   10   40 1
    23   11   12 1
    24   11   41 1
    25   11   42 1
    26   12   17 1
    27   12   13 1
    28   13   14 1
    29   13   43 1
    30   13   44 1
    31   14   15 1
    32   14   45 1
    33   14   46 1
    34   15   16 1
    35   16   17 1
    36   16   47 1
    37   16   48 1
    38   17   49 1
    39   17   50 1
    40   18   23 ar
    41   18   19 ar
    42   19   20 ar
    43   19   51 1
    44   20   21 ar
    45   20   52 1
    46   21   22 ar
    47   21   53 1
    48   22   23 ar
    49   22   54 1
    50   23   55 1
    51   24   29 ar
    52   24   25 ar
    53   25   26 ar
    54   25   56 1
    55   26   27 ar
    56   26   31 1
    57   27   28 ar
    58   27   57 1
    59   28   29 ar
    60   28   58 1
    61   29   30 1
@<TRIPOS>MOLECULE
CHEMBL246001__1
   59    62     0     0     0
SMALL
USER_CHARGES

@<TRIPOS>ATOM
      1 C1         -0.5512    1.6364   -0.3575 C.3       1 <0>        -0.1988
      2 C2         -0.3655    0.1482   -0.2100 C.2       1 <0>         0.4342
      3 O1         -0.3812   -0.3594    0.8936 O.2       1 <0>        -0.4530
      4 C3         -0.1738   -0.6538   -1.3510 C.2       1 <0>        -0.0803
      5 N1         -0.2151   -0.2468   -2.5843 N.2       1 <0>        -0.1237
      6 N2         -0.0138   -1.1333   -3.4817 N.pl3     1 <0>        -0.3914
      7 C4          0.2243   -2.4478   -2.8642 C.3       1 <0>         0.0632
      8 C5          0.1232   -2.1413   -1.3533 C.3       1 <0>         0.0103
      9 C6         -1.0229   -2.9281   -0.7142 C.3       1 <0>        -0.1014
     10 C7         -2.3363   -2.5768   -1.4161 C.3       1 <0>        -0.1538
     11 C8         -3.4734   -3.4049   -0.8144 C.3       1 <0>        -0.0077
     12 N3         -4.7344   -3.0676   -1.4883 N.4       1 <0>        -0.3854
     13 C9         -5.0821   -1.6683   -1.2053 C.3       1 <0>        -0.0488
     14 C10        -6.3961   -1.3192   -1.9087 C.3       1 <0>         0.0376
     15 O2         -7.4200   -2.2147   -1.4664 O.3       1 <0>        -0.3556
     16 C11        -7.1165   -3.5930   -1.6987 C.3       1 <0>         0.0359
     17 C12        -5.8039   -3.9463   -0.9950 C.3       1 <0>        -0.0436
     18 C13         1.4268   -2.4307   -0.6549 C.ar      1 <0>        -0.0764
     19 C14         1.4672   -3.3422    0.3836 C.ar      1 <0>        -0.1044
     20 C15         2.6630   -3.6076    1.0242 C.ar      1 <0>        -0.1136
     21 C16         3.8186   -2.9619    0.6260 C.ar      1 <0>        -0.1097
     22 C17         3.7785   -2.0511   -0.4131 C.ar      1 <0>        -0.1122
     23 C18         2.5834   -1.7888   -1.0565 C.ar      1 <0>        -0.1109
     24 C19        -0.0192   -0.8893   -4.8565 C.ar      1 <0>         0.1551
     25 C20         1.0756   -1.2499   -5.6319 C.ar      1 <0>        -0.1321
     26 C21         1.0667   -1.0066   -6.9934 C.ar      1 <0>         0.1195
     27 C22        -0.0321   -0.4043   -7.5838 C.ar      1 <0>        -0.1160
     28 C23        -1.1233   -0.0442   -6.8150 C.ar      1 <0>        -0.1056
     29 C24        -1.1237   -0.2896   -5.4541 C.ar      1 <0>         0.0939
     30 F1         -2.1929    0.0572   -4.7046 F         1 <0>        -0.1276
     31 F2          2.1311   -1.3565   -7.7482 F         1 <0>        -0.1206
     32 H1          0.4201    2.1296   -0.3168 H         1 <0>         0.0994
     33 H2         -1.0273    1.8501   -1.3145 H         1 <0>         0.0879
     34 H3         -1.1805    2.0061    0.4520 H         1 <0>         0.0889
     35 H4         -0.5412   -3.1616   -3.1687 H         1 <0>         0.0959
     36 H5          1.2189   -2.8171   -3.1140 H         1 <0>         0.1001
     37 H6         -0.8312   -3.9963   -0.8156 H         1 <0>         0.0871
     38 H7         -1.0955   -2.6706    0.3425 H         1 <0>         0.1020
     39 H8         -2.5482   -1.5162   -1.2807 H         1 <0>         0.0897
     40 H9         -2.2499   -2.7971   -2.4801 H         1 <0>         0.0839
     41 H10        -3.2615   -4.4655   -0.9498 H         1 <0>         0.1349
     42 H11        -3.5598   -3.1846    0.2496 H         1 <0>         0.1350
     43 H12        -5.1981   -1.5327   -0.1300 H         1 <0>         0.1409
     44 H13        -4.2894   -1.0155   -1.5710 H         1 <0>         0.1414
     45 H14        -6.6784   -0.2949   -1.6653 H         1 <0>         0.1425
     46 H15        -6.2687   -1.4160   -2.9869 H         1 <0>         0.0805
     47 H16        -7.9201   -4.2143   -1.3034 H         1 <0>         0.1425
     48 H17        -7.0138   -3.7676   -2.7698 H         1 <0>         0.0804
     49 H18        -5.5470   -4.9846   -1.2045 H         1 <0>         0.1427
     50 H19        -5.9196   -3.8099    0.0802 H         1 <0>         0.1401
     51 H20         0.5644   -3.8467    0.6946 H         1 <0>         0.1236
     52 H21         2.6944   -4.3193    1.8360 H         1 <0>         0.1269
     53 H22         4.7528   -3.1688    1.1269 H         1 <0>         0.1271
     54 H23         4.6812   -1.5463   -0.7239 H         1 <0>         0.1259
     55 H24         2.5527   -1.0800   -1.8708 H         1 <0>         0.1128
     56 H25         1.9327   -1.7192   -5.1721 H         1 <0>         0.1525
     57 H26        -0.0362   -0.2152   -8.6471 H         1 <0>         0.1583
     58 H27        -1.9784    0.4253   -7.2786 H         1 <0>         0.1586
     59 H28        -4.6280   -3.1933   -2.4838 H         1 <0>         0.4212
@<TRIPOS>BOND
     1    1    2 1
     2    1   32 1
     3    1   33 1
     4    1   34 1
     5    2    3 2
     6    2    4 1
     7    4    8 1
     8    4    5 2
     9    5    6 1
    10    6    7 1
    11    6   24 1
    12    7    8 1
    13    7   35 1
    14    7   36 1
    15    8    9 1
    16    8   18 1
    17    9   10 1
    18    9   37 1
    19    9   38 1
    20   10   11 1
    21   10   39 1
    22   10   40 1
    23   11   12 1
    24   11   41 1
    25   11   42 1
    26   12   17 1
    27   12   13 1
    28   12   59 1
    29   13   14 1
    30   13   43 1
    31   13   44 1
    32   14   15 1
    33   14   45 1
    34   14   46 1
    35   15   16 1
    36   16   17 1
    37   16   47 1
    38   16   48 1
    39   17   49 1
    40   17   50 1
    41   18   23 ar
    42   18   19 ar
    43   19   20 ar
    44   19   51 1
    45   20   21 ar
    46   20   52 1
    47   21   22 ar
    48   21   53 1
    49   22   23 ar
    50   22   54 1
    51   23   55 1
    52   24   29 ar
    53   24   25 ar
    54   25   26 ar
    55   25   56 1
    56   26   27 ar
    57   26   31 1
    58   27   28 ar
    59   27   57 1
    60   28   29 ar
    61   28   58 1
    62   29   30 1
@<TRIPOS>MOLECULE
CHEMBL246001__2
   58    61     0     0     0
SMALL
USER_CHARGES

@<TRIPOS>ATOM
      1 C1         -0.3230    1.5862    0.1943 C.3       1 <0>        -0.1931
      2 C2         -0.1835    0.0864    0.1475 C.2       1 <0>         0.4353
      3 O1          0.9195   -0.4221    0.1702 O.2       1 <0>        -0.4519
      4 C3         -1.3316   -0.7254    0.0774 C.2       1 <0>        -0.0639
      5 N1         -2.5618   -0.3138    0.1518 N.2       1 <0>        -0.1310
      6 N2         -3.4669   -1.2111    0.0659 N.pl3     1 <0>        -0.3951
      7 C4         -2.8603   -2.5413   -0.1029 C.3       1 <0>         0.0675
      8 C5         -1.3466   -2.2313   -0.1045 C.3       1 <0>         0.0059
      9 C6         -0.7071   -2.6269   -1.4369 C.3       1 <0>        -0.1046
     10 C7         -1.4016   -1.8802   -2.5776 C.3       1 <0>        -0.1155
     11 C8         -0.6833   -2.1795   -3.8949 C.3       1 <0>         0.0572
     12 N3         -1.3501   -1.4626   -4.9901 N.3       1 <0>        -0.5365
     13 C9         -2.7065   -1.9842   -5.2125 C.3       1 <0>         0.0164
     14 C10        -3.3849   -1.1718   -6.3186 C.3       1 <0>         0.0630
     15 O2         -2.5835   -1.2250   -7.5020 O.3       1 <0>        -0.3848
     16 C11        -1.2562   -0.7240   -7.3215 C.3       1 <0>         0.0629
     17 C12        -0.5562   -1.5319   -6.2255 C.3       1 <0>         0.0174
     18 C13        -0.6577   -2.9191    1.0459 C.ar      1 <0>        -0.0646
     19 C14         0.4386   -3.7277    0.8113 C.ar      1 <0>        -0.0994
     20 C15         1.0705   -4.3586    1.8666 C.ar      1 <0>        -0.1166
     21 C16         0.6064   -4.1805    3.1565 C.ar      1 <0>        -0.1169
     22 C17        -0.4894   -3.3711    3.3911 C.ar      1 <0>        -0.1170
     23 C18        -1.1187   -2.7368    2.3364 C.ar      1 <0>        -0.1116
     24 C19        -4.8400   -0.9644    0.1243 C.ar      1 <0>         0.1647
     25 C20        -5.6708   -1.4058   -0.8977 C.ar      1 <0>        -0.1330
     26 C21        -7.0303   -1.1596   -0.8365 C.ar      1 <0>         0.1120
     27 C22        -7.5637   -0.4738    0.2424 C.ar      1 <0>        -0.1212
     28 C23        -6.7397   -0.0330    1.2613 C.ar      1 <0>        -0.1078
     29 C24        -5.3801   -0.2807    1.2094 C.ar      1 <0>         0.0975
     30 F1         -4.5765    0.1451    2.2085 F         1 <0>        -0.1203
     31 F2         -7.8391   -1.5882   -1.8303 F         1 <0>        -0.1260
     32 H1          0.6660    2.0416    0.2462 H         1 <0>         0.0838
     33 H2         -0.8354    1.9317   -0.7035 H         1 <0>         0.0919
     34 H3         -0.9003    1.8701    1.0742 H         1 <0>         0.0923
     35 H4         -3.1231   -3.1938    0.7297 H         1 <0>         0.0951
     36 H5         -3.1609   -2.9849   -1.0521 H         1 <0>         0.0958
     37 H6          0.3512   -2.3665   -1.4235 H         1 <0>         0.0883
     38 H7         -0.8151   -3.7011   -1.5870 H         1 <0>         0.0746
     39 H8         -2.4392   -2.2068   -2.6470 H         1 <0>         0.0587
     40 H9         -1.3704   -0.8083   -2.3822 H         1 <0>         0.0737
     41 H10         0.3542   -1.8528   -3.8254 H         1 <0>         0.0790
     42 H11        -0.7145   -3.2514   -4.0903 H         1 <0>         0.0365
     43 H12        -2.6493   -3.0306   -5.5123 H         1 <0>         0.0429
     44 H13        -3.2844   -1.8997   -4.2922 H         1 <0>         0.0838
     45 H14        -4.3693   -1.5910   -6.5266 H         1 <0>         0.0979
     46 H15        -3.4904   -0.1358   -5.9968 H         1 <0>         0.0597
     47 H16        -0.7011   -0.8193   -8.2547 H         1 <0>         0.0993
     48 H17        -1.2998    0.3251   -7.0288 H         1 <0>         0.0605
     49 H18         0.4354   -1.1171   -6.0446 H         1 <0>         0.0876
     50 H19        -0.4647   -2.5710   -6.5415 H         1 <0>         0.0434
     51 H20         0.8012   -3.8669   -0.1964 H         1 <0>         0.1262
     52 H21         1.9266   -4.9910    1.6832 H         1 <0>         0.1236
     53 H22         1.0996   -4.6740    3.9808 H         1 <0>         0.1223
     54 H23        -0.8522   -3.2322    4.3988 H         1 <0>         0.1216
     55 H24        -1.9725   -2.1015    2.5201 H         1 <0>         0.1125
     56 H25        -5.2555   -1.9403   -1.7393 H         1 <0>         0.1494
     57 H26        -8.6257   -0.2826    0.2875 H         1 <0>         0.1542
     58 H27        -7.1589    0.5014    2.1010 H         1 <0>         0.1567
@<TRIPOS>BOND
     1    1    2 1
     2    1   32 1
     3    1   33 1
     4    1   34 1
     5    2    3 2
     6    2    4 1
     7    4    8 1
     8    4    5 2
     9    5    6 1
    10    6    7 1
    11    6   24 1
    12    7    8 1
    13    7   35 1
    14    7   36 1
    15    8    9 1
    16    8   18 1
    17    9   10 1
    18    9   37 1
    19    9   38 1
    20   10   11 1
    21   10   39 1
    22   10   40 1
    23   11   12 1
    24   11   41 1
    25   11   42 1
    26   12   17 1
    27   12   13 1
    28   13   14 1
    29   13   43 1
    30   13   44 1
    31   14   15 1
    32   14   45 1
    33   14   46 1
    34   15   16 1
    35   16   17 1
    36   16   47 1
    37   16   48 1
    38   17   49 1
    39   17   50 1
    40   18   23 ar
    41   18   19 ar
    42   19   20 ar
    43   19   51 1
    44   20   21 ar
    45   20   52 1
    46   21   22 ar
    47   21   53 1
    48   22   23 ar
    49   22   54 1
    50   23   55 1
    51   24   29 ar
    52   24   25 ar
    53   25   26 ar
    54   25   56 1
    55   26   27 ar
    56   26   31 1
    57   27   28 ar
    58   27   57 1
    59   28   29 ar
    60   28   58 1
    61   29   30 1
@<TRIPOS>MOLECULE
CHEMBL246001__3
   59    62     0     0     0
SMALL
USER_CHARGES

@<TRIPOS>ATOM
      1 C1         -0.2492    1.6064   -0.3654 C.3       1 <0>        -0.1976
      2 C2         -0.1776    0.1076   -0.2267 C.2       1 <0>         0.4319
      3 O1         -0.2022   -0.4023    0.8757 O.2       1 <0>        -0.4490
      4 C3         -0.0821   -0.7019   -1.3746 C.2       1 <0>        -0.0791
      5 N1         -0.1517   -0.2905   -2.6052 N.2       1 <0>        -0.1248
      6 N2         -0.0412   -1.1853   -3.5100 N.pl3     1 <0>        -0.3915
      7 C4          0.1449   -2.5129   -2.9028 C.3       1 <0>         0.0639
      8 C5          0.1263   -2.2043   -1.3890 C.3       1 <0>         0.0098
      9 C6          1.4591   -2.5771   -0.7368 C.3       1 <0>        -0.1015
     10 C7          2.5930   -1.8083   -1.4181 C.3       1 <0>        -0.1545
     11 C8          3.9082   -2.0853   -0.6872 C.3       1 <0>        -0.0079
     12 N3          4.9969   -1.3472   -1.3413 N.4       1 <0>        -0.3860
     13 C9          5.1926   -1.8664   -2.7019 C.3       1 <0>        -0.0480
     14 C10         6.3271   -1.0955   -3.3814 C.3       1 <0>         0.0365
     15 O2          7.5165   -1.2177   -2.5963 O.3       1 <0>        -0.3554
     16 C11         7.3689   -0.7466   -1.2539 C.3       1 <0>         0.0355
     17 C12         6.2363   -1.5168   -0.5705 C.3       1 <0>        -0.0435
     18 C13        -1.0186   -2.9127   -0.7119 C.ar      1 <0>        -0.0752
     19 C14        -0.7773   -3.7389    0.3699 C.ar      1 <0>        -0.1029
     20 C15        -1.8275   -4.3887    0.9910 C.ar      1 <0>        -0.1143
     21 C16        -3.1189   -4.2121    0.5307 C.ar      1 <0>        -0.1097
     22 C17        -3.3602   -3.3852   -0.5505 C.ar      1 <0>        -0.1123
     23 C18        -2.3106   -2.7320   -1.1690 C.ar      1 <0>        -0.1095
     24 C19        -0.0907   -0.9384   -4.8834 C.ar      1 <0>         0.1530
     25 C20         0.9471   -1.3611   -5.7046 C.ar      1 <0>        -0.1361
     26 C21         0.8948   -1.1148   -7.0645 C.ar      1 <0>         0.1122
     27 C22        -0.1907   -0.4475   -7.6078 C.ar      1 <0>        -0.1141
     28 C23        -1.2252   -0.0254   -6.7935 C.ar      1 <0>        -0.1035
     29 C24        -1.1822   -0.2733   -5.4337 C.ar      1 <0>         0.1026
     30 F1         -2.1964    0.1342   -4.6395 F         1 <0>        -0.1177
     31 F2          1.9037   -1.5251   -7.8638 F         1 <0>        -0.1244
     32 H1          0.7588    2.0212   -0.3513 H         1 <0>         0.0927
     33 H2         -0.7337    1.8614   -1.3079 H         1 <0>         0.0901
     34 H3         -0.8243    2.0209    0.4626 H         1 <0>         0.0911
     35 H4         -0.6736   -3.1796   -3.1742 H         1 <0>         0.1016
     36 H5          1.1045   -2.9396   -3.1945 H         1 <0>         0.0938
     37 H6          1.4302   -2.3194    0.3219 H         1 <0>         0.0995
     38 H7          1.6298   -3.6482   -0.8455 H         1 <0>         0.0891
     39 H8          2.6788   -2.1312   -2.4556 H         1 <0>         0.0842
     40 H9          2.3779   -0.7402   -1.3867 H         1 <0>         0.0895
     41 H10         3.8224   -1.7624    0.3503 H         1 <0>         0.1369
     42 H11         4.1233   -3.1534   -0.7186 H         1 <0>         0.1340
     43 H12         5.4497   -2.9245   -2.6538 H         1 <0>         0.1406
     44 H13         4.2737   -1.7409   -3.2747 H         1 <0>         0.1384
     45 H14         6.5030   -1.5075   -4.3751 H         1 <0>         0.1420
     46 H15         6.0532   -0.0439   -3.4658 H         1 <0>         0.0810
     47 H16         8.2987   -0.9061   -0.7079 H         1 <0>         0.1432
     48 H17         7.1306    0.3169   -1.2655 H         1 <0>         0.0815
     49 H18         6.0922   -1.1319    0.4390 H         1 <0>         0.1439
     50 H19         6.4931   -2.5751   -0.5232 H         1 <0>         0.1399
     51 H20         0.2316   -3.8769    0.7295 H         1 <0>         0.1227
     52 H21        -1.6389   -5.0347    1.8357 H         1 <0>         0.1263
     53 H22        -3.9393   -4.7204    1.0155 H         1 <0>         0.1267
     54 H23        -4.3692   -3.2475   -0.9104 H         1 <0>         0.1255
     55 H24        -2.4996   -2.0831   -2.0113 H         1 <0>         0.1127
     56 H25         1.7938   -1.8812   -5.2815 H         1 <0>         0.1445
     57 H26        -0.2288   -0.2561   -8.6701 H         1 <0>         0.1582
     58 H27        -2.0700    0.4947   -7.2205 H         1 <0>         0.1609
     59 H28         4.7598   -0.3674   -1.3858 H         1 <0>         0.4228
@<TRIPOS>BOND
     1    1    2 1
     2    1   32 1
     3    1   33 1
     4    1   34 1
     5    2    3 2
     6    2    4 1
     7    4    8 1
     8    4    5 2
     9    5    6 1
    10    6    7 1
    11    6   24 1
    12    7    8 1
    13    7   35 1
    14    7   36 1
    15    8    9 1
    16    8   18 1
    17    9   10 1
    18    9   37 1
    19    9   38 1
    20   10   11 1
    21   10   39 1
    22   10   40 1
    23   11   12 1
    24   11   41 1
    25   11   42 1
    26   12   17 1
    27   12   13 1
    28   12   59 1
    29   13   14 1
    30   13   43 1
    31   13   44 1
    32   14   15 1
    33   14   45 1
    34   14   46 1
    35   15   16 1
    36   16   17 1
    37   16   47 1
    38   16   48 1
    39   17   49 1
    40   17   50 1
    41   18   23 ar
    42   18   19 ar
    43   19   20 ar
    44   19   51 1
    45   20   21 ar
    46   20   52 1
    47   21   22 ar
    48   21   53 1
    49   22   23 ar
    50   22   54 1
    51   23   55 1
    52   24   29 ar
    53   24   25 ar
    54   25   26 ar
    55   25   56 1
    56   26   27 ar
    57   26   31 1
    58   27   28 ar
    59   27   57 1
    60   28   29 ar
    61   28   58 1
    62   29   30 1
@<TRIPOS>MOLECULE
CHEMBL1093088
   51    55     0     0     0
SMALL
USER_CHARGES

@<TRIPOS>ATOM
      1 C1         -0.0167    1.3781    0.0096 C.ar      1 <0>        -0.1143
      2 C2          1.1709    2.0855    0.0021 C.ar      1 <0>        -0.1160
      3 C3          2.3773    1.4107   -0.0130 C.ar      1 <0>        -0.1053
      4 C4          2.3960    0.0285   -0.0201 C.ar      1 <0>        -0.0952
      5 C5          1.2084   -0.6789   -0.0117 C.ar      1 <0>        -0.1094
      6 C6          0.0021   -0.0041    0.0020 C.ar      1 <0>        -0.1159
      7 C7          3.7112   -0.7071   -0.0376 C.3       1 <0>         0.2048
      8 H1          4.5003   -0.0447   -0.3933 H         1 <0>         0.0860
      9 C8          4.0466   -1.2045    1.3714 C.3       1 <0>        -0.1244
     10 H2          3.2933   -1.9268    1.6859 H         1 <0>         0.0908
     11 C9          4.0633   -0.0357    2.3531 C.3       1 <0>        -0.1142
     12 C10         5.2154    0.9108    2.0031 C.3       1 <0>        -0.1508
     13 C11         6.5261    0.1180    2.0146 C.3       1 <0>         0.0761
     14 H3          6.6962   -0.2905    3.0107 H         1 <0>         0.0779
     15 O1          6.4355   -0.9491    1.0702 O.3       1 <0>        -0.3592
     16 C12         5.4151   -1.8820    1.3503 C.3       1 <0>         0.1549
     17 H4          5.6035   -2.3500    2.3165 H         1 <0>         0.0710
     18 C13         5.4513   -2.9324    0.2682 C.ar      1 <0>        -0.1608
     19 C14         6.3833   -3.9524    0.3557 C.ar      1 <0>         0.0009
     20 C15         6.4434   -4.9262   -0.6223 C.ar      1 <0>        -0.2418
     21 C16         5.5718   -4.8870   -1.6955 C.ar      1 <0>        -0.0163
     22 C17         4.6388   -3.8744   -1.7889 C.ar      1 <0>        -0.1955
     23 C18         4.5747   -2.8934   -0.8045 C.ar      1 <0>         0.2663
     24 N1          3.6134   -1.8822   -0.9154 N.pl3     1 <0>        -0.7353
     25 C19         7.4609   -6.0331   -0.5199 C.3       1 <0>         0.5125
     26 F1          6.9115   -7.1077    0.1876 F         1 <0>        -0.1799
     27 F2          7.8212   -6.4556   -1.8040 F         1 <0>        -0.1793
     28 F3          8.5948   -5.5635    0.1517 F         1 <0>        -0.1784
     29 C20         7.6857    1.0414    1.6356 C.3       1 <0>         0.1395
     30 N2          8.9509    0.3138    1.7625 N.pl3     1 <0>        -0.3747
     31 C21         9.8907    0.1603    0.8137 C.2       1 <0>         0.2621
     32 N3         10.8657   -0.5507    1.3193 N.2       1 <0>        -0.5459
     33 C22        10.5855   -0.8681    2.5826 C.2       1 <0>         0.2011
     34 N4          9.4256   -0.3567    2.9015 N.2       1 <0>        -0.3199
     35 H5         -0.9591    1.9053    0.0259 H         1 <0>         0.1241
     36 H6          1.1563    3.1654    0.0076 H         1 <0>         0.1254
     37 H7          3.3051    1.9634   -0.0196 H         1 <0>         0.1232
     38 H8          1.2231   -1.7588   -0.0176 H         1 <0>         0.1224
     39 H9         -0.9258   -0.5567    0.0082 H         1 <0>         0.1242
     40 H10         3.1184    0.5040    2.2911 H         1 <0>         0.0809
     41 H11         4.1993   -0.4143    3.3661 H         1 <0>         0.0724
     42 H12         5.0527    1.3334    1.0116 H         1 <0>         0.0768
     43 H13         5.2667    1.7121    2.7401 H         1 <0>         0.0834
     44 H14         7.0662   -3.9867    1.1916 H         1 <0>         0.1323
     45 H15         5.6216   -5.6482   -2.4601 H         1 <0>         0.1368
     46 H16         3.9585   -3.8430   -2.6272 H         1 <0>         0.1346
     47 H17         2.8928   -1.9561   -1.5606 H         1 <0>         0.4071
     48 H18         7.5613    1.3771    0.6060 H         1 <0>         0.1086
     49 H19         7.6948    1.9049    2.3007 H         1 <0>         0.1051
     50 H20         9.8481    0.5546   -0.1909 H         1 <0>         0.2156
     51 H21        11.2165   -1.4499    3.2382 H         1 <0>         0.2154
@<TRIPOS>BOND
     1    1    6 ar
     2    1    2 ar
     3    1   35 1
     4    2    3 ar
     5    2   36 1
     6    3    4 ar
     7    3   37 1
     8    4    5 ar
     9    4    7 1
    10    5    6 ar
    11    5   38 1
    12    6   39 1
    13    7    8 1
    14    7   24 1
    15    7    9 1
    16    9   10 1
    17    9   16 1
    18    9   11 1
    19   11   12 1
    20   11   40 1
    21   11   41 1
    22   12   13 1
    23   12   42 1
    24   12   43 1
    25   13   14 1
    26   13   15 1
    27   13   29 1
    28   15   16 1
    29   16   17 1
    30   16   18 1
    31   18   23 ar
    32   18   19 ar
    33   19   20 ar
    34   19   44 1
    35   20   21 ar
    36   20   25 1
    37   21   22 ar
    38   21   45 1
    39   22   23 ar
    40   22   46 1
    41   23   24 1
    42   24   47 1
    43   25   26 1
    44   25   27 1
    45   25   28 1
    46   29   30 1
    47   29   48 1
    48   29   49 1
    49   30   34 1
    50   30   31 1
    51   31   32 2
    52   31   50 1
    53   32   33 1
    54   33   34 2
    55   33   51 1
@<TRIPOS>MOLECULE
CHEMBL262736
   51    53     0     0     0
SMALL
USER_CHARGES

@<TRIPOS>ATOM
      1 C1          0.4891   -0.2449    0.4860 C.3       1 <0>        -0.1606
      2 C2          0.7319   -1.4639   -0.4061 C.3       1 <0>        -0.0898
      3 C3          1.8648   -2.3081    0.1810 C.3       1 <0>        -0.1512
      4 C4         -0.5446   -2.3042   -0.4801 C.3       1 <0>        -0.1363
      5 C5          1.1183   -0.9985   -1.8115 C.3       1 <0>         0.1065
      6 H1          0.3515   -0.3253   -2.1949 H         1 <0>         0.1169
      7 C6          2.4393   -0.2755   -1.7557 C.2       1 <0>         0.5202
      8 O1          3.4749   -0.8940   -1.8820 O.2       1 <0>        -0.5164
      9 N1          2.4700    1.0584   -1.5655 N.am      1 <0>        -0.6086
     10 C7          1.3196    1.9688   -1.4842 C.3       1 <0>         0.1231
     11 C8          1.8628    3.3562   -1.2653 C.2       1 <0>        -0.1083
     12 C9          3.1818    3.3189   -1.2160 C.2       1 <0>        -0.1137
     13 C10         3.6603    1.9016   -1.3904 C.3       1 <0>         0.2016
     14 H2          4.2962    1.8332   -2.2730 H         1 <0>         0.0996
     15 C11         4.4250    1.4616   -0.1686 C.ar      1 <0>        -0.0722
     16 C12         3.7594    1.2560    1.0260 C.ar      1 <0>        -0.1092
     17 C13         4.4580    0.8523    2.1486 C.ar      1 <0>        -0.1025
     18 C14         5.8236    0.6537    2.0795 C.ar      1 <0>        -0.1399
     19 C15         6.4935    0.8592    0.8824 C.ar      1 <0>         0.1070
     20 C16         5.7891    1.2585   -0.2444 C.ar      1 <0>        -0.1222
     21 O2          7.8366    0.6645    0.8119 O.3       1 <0>        -0.4991
     22 C17         1.0420    4.5773   -1.1267 C.ar      1 <0>        -0.0419
     23 C18         0.4369    5.1457   -2.2481 C.ar      1 <0>        -0.1091
     24 C19        -0.3295    6.2871   -2.1117 C.ar      1 <0>         0.0940
     25 C20        -0.4975    6.8677   -0.8646 C.ar      1 <0>        -0.1178
     26 C21         0.0994    6.3095    0.2506 C.ar      1 <0>        -0.1219
     27 C22         0.8640    5.1643    0.1286 C.ar      1 <0>         0.1067
     28 F1          1.4424    4.6171    1.2200 F         1 <0>        -0.1259
     29 F2         -0.9161    6.8387   -3.1966 F         1 <0>        -0.1308
     30 O3          1.2317   -2.1320   -2.6742 O.3       1 <0>        -0.5347
     31 H3          1.3782    0.3855    0.4898 H         1 <0>         0.0655
     32 H4         -0.3578    0.3236    0.1018 H         1 <0>         0.0628
     33 H5          0.2737   -0.5755    1.5022 H         1 <0>         0.0681
     34 H6          1.5895   -2.6397    1.1822 H         1 <0>         0.0637
     35 H7          2.0378   -3.1765   -0.4545 H         1 <0>         0.0591
     36 H8          2.7742   -1.7095    0.2338 H         1 <0>         0.0632
     37 H9         -1.3517   -1.7028   -0.8984 H         1 <0>         0.0580
     38 H10        -0.3716   -3.1726   -1.1157 H         1 <0>         0.0656
     39 H11        -0.8199   -2.6357    0.5211 H         1 <0>         0.0607
     40 H12         0.7534    1.9349   -2.4150 H         1 <0>         0.0879
     41 H13         0.6804    1.6847   -0.6483 H         1 <0>         0.0948
     42 H14         3.8218    4.1762   -1.0681 H         1 <0>         0.1544
     43 H15         2.6921    1.4114    1.0822 H         1 <0>         0.1218
     44 H16         3.9360    0.6924    3.0804 H         1 <0>         0.1271
     45 H17         6.3690    0.3390    2.9569 H         1 <0>         0.1288
     46 H18         6.3076    1.4146   -1.1788 H         1 <0>         0.1285
     47 H19         8.0912   -0.2369    0.5714 H         1 <0>         0.3922
     48 H20         0.5676    4.6946   -3.2206 H         1 <0>         0.1490
     49 H21        -1.0970    7.7603   -0.7635 H         1 <0>         0.1493
     50 H22        -0.0354    6.7667    1.2197 H         1 <0>         0.1508
     51 H23         1.8972   -2.7750   -2.3935 H         1 <0>         0.3851
@<TRIPOS>BOND
     1    1    2 1
     2    1   31 1
     3    1   32 1
     4    1   33 1
     5    2    3 1
     6    2    4 1
     7    2    5 1
     8    3   34 1
     9    3   35 1
    10    3   36 1
    11    4   37 1
    12    4   38 1
    13    4   39 1
    14    5    6 1
    15    5    7 1
    16    5   30 1
    17    7    8 2
    18    7    9 am
    19    9   13 1
    20    9   10 1
    21   10   11 1
    22   10   40 1
    23   10   41 1
    24   11   12 2
    25   11   22 1
    26   12   13 1
    27   12   42 1
    28   13   14 1
    29   13   15 1
    30   15   20 ar
    31   15   16 ar
    32   16   17 ar
    33   16   43 1
    34   17   18 ar
    35   17   44 1
    36   18   19 ar
    37   18   45 1
    38   19   20 ar
    39   19   21 1
    40   20   46 1
    41   21   47 1
    42   22   27 ar
    43   22   23 ar
    44   23   24 ar
    45   23   48 1
    46   24   25 ar
    47   24   29 1
    48   25   26 ar
    49   25   49 1
    50   26   27 ar
    51   26   50 1
    52   27   28 1
    53   30   51 1
@<TRIPOS>MOLECULE
CHEMBL1096003
   62    65     0     0     0
SMALL
USER_CHARGES

@<TRIPOS>ATOM
      1 C1         -0.0178    1.4648    0.0101 C.3       1 <0>        -0.0524
      2 N1          0.0021   -0.0041    0.0020 N.4       1 <0>        -0.3809
      3 C2          0.7126   -0.4907    1.1921 C.3       1 <0>        -0.0566
      4 C3         -1.3761   -0.5125    0.0124 C.3       1 <0>         0.0045
      5 C4         -1.3584   -2.0365   -0.1216 C.3       1 <0>        -0.6987
      6 S1         -3.0603   -2.6644   -0.1088 S.o2      1 <0>         2.6231
      7 O1         -3.6442   -2.4693    1.1719 O.2       1 <0>        -0.9250
      8 O2         -3.7422   -2.2542   -1.2860 O.2       1 <0>        -0.9309
      9 N2         -2.9091   -4.3067   -0.2585 N.pl3     1 <0>        -1.1006
     10 C5         -2.2631   -5.0827    0.8030 C.3       1 <0>         0.1191
     11 C6         -2.5765   -6.5680    0.6118 C.3       1 <0>         0.0844
     12 H1         -2.2024   -6.8975   -0.3575 H         1 <0>         0.0731
     13 C7         -1.9046   -7.3803    1.7232 C.3       1 <0>        -0.1540
     14 C8         -2.2562   -8.8590    1.5346 C.3       1 <0>        -0.1146
     15 C9         -3.7733   -9.0264    1.5253 C.3       1 <0>        -0.1274
     16 H2         -4.0187  -10.0608    1.2849 H         1 <0>         0.0945
     17 C10        -4.3526   -8.6772    2.8991 C.3       1 <0>         0.2067
     18 H3         -4.1971   -7.6187    3.1077 H         1 <0>         0.0861
     19 N3         -5.7924   -8.9721    2.8640 N.pl3     1 <0>        -0.7350
     20 C11        -6.5363   -8.5904    1.7390 C.ar      1 <0>         0.2159
     21 C12        -5.9093   -8.1842    0.5726 C.ar      1 <0>        -0.1290
     22 C13        -6.6706   -7.8195   -0.5251 C.ar      1 <0>        -0.0486
     23 C14        -8.0511   -7.8557   -0.4593 C.ar      1 <0>        -0.0669
     24 C15        -8.6804   -8.2572    0.7059 C.ar      1 <0>        -0.0883
     25 C16        -7.9269   -8.6246    1.8048 C.ar      1 <0>         0.0365
     26 F1         -8.5396   -9.0172    2.9430 F         1 <0>        -0.1320
     27 Cl1        -8.9967   -7.3961   -1.8407 Cl        1 <0>        -0.0573
     28 C17        -4.4075   -8.1050    0.4860 C.3       1 <0>         0.1567
     29 H4         -4.0993   -8.4170   -0.5118 H         1 <0>         0.0730
     30 O3         -3.9888   -6.7694    0.6720 O.3       1 <0>        -0.3607
     31 C18        -3.6847   -9.5108    3.9622 C.ar      1 <0>        -0.0981
     32 C19        -4.0812  -10.8195    4.1649 C.ar      1 <0>        -0.1081
     33 C20        -3.4686  -11.5842    5.1400 C.ar      1 <0>        -0.1135
     34 C21        -2.4591  -11.0403    5.9121 C.ar      1 <0>        -0.1122
     35 C22        -2.0619   -9.7320    5.7087 C.ar      1 <0>        -0.1165
     36 C23        -2.6717   -8.9686    4.7307 C.ar      1 <0>        -0.1068
     37 H5          1.0047    1.8421    0.0024 H         1 <0>         0.1296
     38 H6         -0.5450    1.8259   -0.8730 H         1 <0>         0.1277
     39 H7         -0.5280    1.8163    0.9069 H         1 <0>         0.1262
     40 H8          0.2024   -0.1392    2.0889 H         1 <0>         0.1270
     41 H9          0.7273   -1.5806    1.1861 H         1 <0>         0.1227
     42 H10         1.7352   -0.1134    1.1844 H         1 <0>         0.1299
     43 H11        -1.8584   -0.2358    0.9500 H         1 <0>         0.1454
     44 H12        -1.9290   -0.0808   -0.8218 H         1 <0>         0.1469
     45 H13        -0.8762   -2.3132   -1.0592 H         1 <0>         0.1580
     46 H14        -0.8055   -2.4683    0.7126 H         1 <0>         0.1536
     47 H15        -3.2483   -4.7549   -1.0491 H         1 <0>         0.4294
     48 H16        -1.1847   -4.9303    0.7595 H         1 <0>         0.0809
     49 H17        -2.6376   -4.7541    1.7725 H         1 <0>         0.0937
     50 H18        -0.8237   -7.2517    1.6673 H         1 <0>         0.0820
     51 H19        -2.2655   -7.0398    2.6938 H         1 <0>         0.0795
     52 H20        -1.8461   -9.2118    0.5884 H         1 <0>         0.0732
     53 H21        -1.8318   -9.4403    2.3532 H         1 <0>         0.0839
     54 H22        -6.2209   -9.4241    3.6077 H         1 <0>         0.4107
     55 H23        -6.1838   -7.5058   -1.4367 H         1 <0>         0.1398
     56 H24        -9.7589   -8.2838    0.7564 H         1 <0>         0.1493
     57 H25        -4.8699  -11.2444    3.5617 H         1 <0>         0.1228
     58 H26        -3.7788  -12.6064    5.2989 H         1 <0>         0.1260
     59 H27        -1.9809  -11.6375    6.6744 H         1 <0>         0.1254
     60 H28        -1.2735   -9.3070    6.3122 H         1 <0>         0.1253
     61 H29        -2.3588   -7.9476    4.5693 H         1 <0>         0.1215
     62 H30         0.4744   -0.3295   -0.8281 H         1 <0>         0.4297
@<TRIPOS>BOND
     1    1    2 1
     2    1   37 1
     3    1   38 1
     4    1   39 1
     5    2    3 1
     6    2    4 1
     7    2   62 1
     8    3   40 1
     9    3   41 1
    10    3   42 1
    11    4    5 1
    12    4   43 1
    13    4   44 1
    14    5    6 1
    15    5   45 1
    16    5   46 1
    17    6    7 2
    18    6    8 2
    19    6    9 1
    20    9   10 1
    21    9   47 1
    22   10   11 1
    23   10   48 1
    24   10   49 1
    25   11   12 1
    26   11   30 1
    27   11   13 1
    28   13   14 1
    29   13   50 1
    30   13   51 1
    31   14   15 1
    32   14   52 1
    33   14   53 1
    34   15   16 1
    35   15   28 1
    36   15   17 1
    37   17   18 1
    38   17   19 1
    39   17   31 1
    40   19   20 1
    41   19   54 1
    42   20   25 ar
    43   20   21 ar
    44   21   22 ar
    45   21   28 1
    46   22   23 ar
    47   22   55 1
    48   23   24 ar
    49   23   27 1
    50   24   25 ar
    51   24   56 1
    52   25   26 1
    53   28   29 1
    54   28   30 1
    55   31   36 ar
    56   31   32 ar
    57   32   33 ar
    58   32   57 1
    59   33   34 ar
    60   33   58 1
    61   34   35 ar
    62   34   59 1
    63   35   36 ar
    64   35   60 1
    65   36   61 1
@<TRIPOS>MOLECULE
CHEMBL206249
   56    59     0     0     0
SMALL
USER_CHARGES

@<TRIPOS>ATOM
      1 C1         -0.0413    1.4609    0.0113 C.3       1 <0>         0.0584
      2 N1         -0.0051   -0.0036    0.0024 N.am      1 <0>        -0.6277
      3 C2          0.1360   -0.7406    1.2607 C.3       1 <0>         0.1492
      4 C3         -1.0336   -0.3986    2.1883 C.3       1 <0>        -0.1606
      5 C4         -0.8384   -1.1092    3.5293 C.3       1 <0>        -0.0028
      6 N2          0.4198   -0.6675    4.1427 N.4       1 <0>        -0.5064
      7 C5          1.5516   -1.0559    3.2926 C.3       1 <0>        -0.0026
      8 C6          1.4484   -0.3433    1.9424 C.3       1 <0>        -0.1619
      9 C7         -0.1016   -0.6730   -1.1634 C.2       1 <0>         0.7398
     10 O1         -0.1702   -1.8870   -1.1635 O.2       1 <0>        -0.5618
     11 N3         -0.1220    0.0032   -2.3291 N.am      1 <0>        -0.6234
     12 C8          0.0661    1.4479   -2.5191 C.3       1 <0>         0.1315
     13 C9         -0.0434    1.7221   -3.9958 C.2       1 <0>        -0.1114
     14 C10        -0.2706    0.5952   -4.6456 C.2       1 <0>        -0.1118
     15 C11        -0.3307   -0.5529   -3.6729 C.3       1 <0>         0.2236
     16 C12        -1.6822   -1.2153   -3.7493 C.ar      1 <0>        -0.0734
     17 C13        -2.7754   -0.6269   -3.1402 C.ar      1 <0>        -0.1098
     18 C14        -4.0165   -1.2321   -3.2085 C.ar      1 <0>        -0.1027
     19 C15        -4.1674   -2.4271   -3.8854 C.ar      1 <0>        -0.1399
     20 C16        -3.0723   -3.0193   -4.4972 C.ar      1 <0>         0.1125
     21 C17        -1.8290   -2.4068   -4.4324 C.ar      1 <0>        -0.1259
     22 O2         -3.2182   -4.1947   -5.1637 O.3       1 <0>        -0.4980
     23 C18         0.0839    3.0537   -4.6239 C.ar      1 <0>        -0.0458
     24 C19        -0.9548    3.9795   -4.5202 C.ar      1 <0>        -0.1105
     25 C20        -0.8293    5.2228   -5.1093 C.ar      1 <0>         0.0955
     26 C21         0.3249    5.5512   -5.8026 C.ar      1 <0>        -0.1154
     27 C22         1.3579    4.6384   -5.9090 C.ar      1 <0>        -0.1198
     28 C23         1.2473    3.3931   -5.3193 C.ar      1 <0>         0.1058
     29 F1          2.2596    2.5041   -5.4199 F         1 <0>        -0.1268
     30 F2         -1.8342    6.1204   -5.0098 F         1 <0>        -0.1295
     31 H1          0.8117    1.8488   -0.5456 H         1 <0>         0.0749
     32 H2         -0.9654    1.8043   -0.4537 H         1 <0>         0.0729
     33 H3          0.0029    1.8192    1.0398 H         1 <0>         0.0750
     34 H4          0.1404   -1.8114    1.0574 H         1 <0>         0.1207
     35 H5         -1.0677    0.6789    2.3489 H         1 <0>         0.0914
     36 H6         -1.9674   -0.7293    1.7337 H         1 <0>         0.1172
     37 H7         -1.6695   -0.8681    4.1921 H         1 <0>         0.1381
     38 H8         -0.8047   -2.1866    3.3676 H         1 <0>         0.1351
     39 H9          0.4078    0.3360    4.2472 H         1 <0>         0.4274
     40 H10         2.4850   -0.7754    3.7806 H         1 <0>         0.1382
     41 H11         1.5344   -2.1345    3.1359 H         1 <0>         0.1350
     42 H12         2.2887   -0.6344    1.3121 H         1 <0>         0.1166
     43 H13         1.4658    0.7354    2.0980 H         1 <0>         0.0917
     44 H14        -0.7076    1.9964   -1.9817 H         1 <0>         0.0893
     45 H15         1.0514    1.7440   -2.1590 H         1 <0>         0.0863
     46 H16        -0.3907    0.5091   -5.7154 H         1 <0>         0.1574
     47 H17         0.4524   -1.2760   -3.9006 H         1 <0>         0.1023
     48 H18        -2.6594    0.3068   -2.6100 H         1 <0>         0.1143
     49 H19        -4.8687   -0.7706   -2.7320 H         1 <0>         0.1264
     50 H20        -5.1370   -2.8998   -3.9379 H         1 <0>         0.1306
     51 H21        -0.9758   -2.8635   -4.9119 H         1 <0>         0.1308
     52 H22        -3.4360   -4.0914   -6.1002 H         1 <0>         0.3946
     53 H23        -1.8551    3.7245   -3.9809 H         1 <0>         0.1469
     54 H24         0.4178    6.5242   -6.2619 H         1 <0>         0.1513
     55 H25         2.2548    4.9004   -6.4506 H         1 <0>         0.1524
     56 H26         0.5193   -1.0970    5.0503 H         1 <0>         0.4345
@<TRIPOS>BOND
     1    1    2 1
     2    1   31 1
     3    1   32 1
     4    1   33 1
     5    2    3 1
     6    2    9 am
     7    3    8 1
     8    3    4 1
     9    3   34 1
    10    4    5 1
    11    4   35 1
    12    4   36 1
    13    5    6 1
    14    5   37 1
    15    5   38 1
    16    6    7 1
    17    6   39 1
    18    6   56 1
    19    7    8 1
    20    7   40 1
    21    7   41 1
    22    8   42 1
    23    8   43 1
    24    9   10 2
    25    9   11 am
    26   11   15 1
    27   11   12 1
    28   12   13 1
    29   12   44 1
    30   12   45 1
    31   13   14 2
    32   13   23 1
    33   14   15 1
    34   14   46 1
    35   15   16 1
    36   15   47 1
    37   16   21 ar
    38   16   17 ar
    39   17   18 ar
    40   17   48 1
    41   18   19 ar
    42   18   49 1
    43   19   20 ar
    44   19   50 1
    45   20   21 ar
    46   20   22 1
    47   21   51 1
    48   22   52 1
    49   23   28 ar
    50   23   24 ar
    51   24   25 ar
    52   24   53 1
    53   25   26 ar
    54   25   30 1
    55   26   27 ar
    56   26   54 1
    57   27   28 ar
    58   27   55 1
    59   28   29 1
@<TRIPOS>MOLECULE
CHEMBL206249__1
   56    59     0     0     0
SMALL
USER_CHARGES

@<TRIPOS>ATOM
      1 C1         -0.0399    1.4609    0.0113 C.3       1 <0>         0.0580
      2 N1         -0.0044   -0.0037    0.0024 N.am      1 <0>        -0.6280
      3 C2          0.1369   -0.7407    1.2606 C.3       1 <0>         0.1497
      4 C3         -1.0322   -0.3982    2.1886 C.3       1 <0>        -0.1608
      5 C4         -0.8368   -1.1089    3.5296 C.3       1 <0>        -0.0027
      6 N2          0.4219   -0.6678    4.1425 N.4       1 <0>        -0.5065
      7 C5          1.5532   -1.0567    3.2920 C.3       1 <0>        -0.0025
      8 C6          1.4498   -0.3440    1.9418 C.3       1 <0>        -0.1620
      9 C7         -0.1016   -0.6730   -1.1634 C.2       1 <0>         0.7395
     10 O1         -0.1709   -1.8869   -1.1635 O.2       1 <0>        -0.5621
     11 N3         -0.1220    0.0032   -2.3291 N.am      1 <0>        -0.6234
     12 C8          0.0661    1.4479   -2.5191 C.3       1 <0>         0.1316
     13 C9         -0.0434    1.7221   -3.9958 C.2       1 <0>        -0.1118
     14 C10        -0.2706    0.5952   -4.6456 C.2       1 <0>        -0.1120
     15 C11        -0.3307   -0.5529   -3.6729 C.3       1 <0>         0.2240
     16 C12         0.7520   -1.5527   -3.9877 C.ar      1 <0>        -0.0710
     17 C13         2.0567   -1.3020   -3.6037 C.ar      1 <0>        -0.1042
     18 C14         3.0522   -2.2172   -3.8910 C.ar      1 <0>        -0.1027
     19 C15         2.7458   -3.3847   -4.5633 C.ar      1 <0>        -0.1396
     20 C16         1.4380   -3.6385   -4.9496 C.ar      1 <0>         0.1106
     21 C17         0.4395   -2.7212   -4.6546 C.ar      1 <0>        -0.1262
     22 O2          1.1341   -4.7862   -5.6108 O.3       1 <0>        -0.4975
     23 C18         0.0839    3.0537   -4.6239 C.ar      1 <0>        -0.0465
     24 C19        -0.9548    3.9795   -4.5202 C.ar      1 <0>        -0.1106
     25 C20        -0.8293    5.2228   -5.1093 C.ar      1 <0>         0.0950
     26 C21         0.3249    5.5512   -5.8026 C.ar      1 <0>        -0.1151
     27 C22         1.3579    4.6384   -5.9090 C.ar      1 <0>        -0.1202
     28 C23         1.2473    3.3931   -5.3193 C.ar      1 <0>         0.1066
     29 F1          2.2596    2.5041   -5.4199 F         1 <0>        -0.1260
     30 F2         -1.8342    6.1204   -5.0098 F         1 <0>        -0.1296
     31 H1          0.8120    1.8484   -0.5474 H         1 <0>         0.0746
     32 H2         -0.9648    1.8047   -0.4517 H         1 <0>         0.0739
     33 H3          0.0066    1.8192    1.0397 H         1 <0>         0.0748
     34 H4          0.1408   -1.8115    1.0573 H         1 <0>         0.1205
     35 H5         -1.0658    0.6794    2.3493 H         1 <0>         0.0916
     36 H6         -1.9663   -0.7285    1.7344 H         1 <0>         0.1173
     37 H7         -1.6675   -0.8674    4.1927 H         1 <0>         0.1382
     38 H8         -0.8036   -2.1863    3.3679 H         1 <0>         0.1349
     39 H9          0.4103    0.3358    4.2470 H         1 <0>         0.4276
     40 H10         2.4869   -0.7766    3.7796 H         1 <0>         0.1381
     41 H11         1.5354   -2.1352    3.1353 H         1 <0>         0.1348
     42 H12         2.2897   -0.6354    1.3111 H         1 <0>         0.1163
     43 H13         1.4677    0.7347    2.0973 H         1 <0>         0.0917
     44 H14        -0.7076    1.9964   -1.9817 H         1 <0>         0.0921
     45 H15         1.0514    1.7440   -2.1590 H         1 <0>         0.0835
     46 H16        -0.3907    0.5091   -5.7154 H         1 <0>         0.1577
     47 H17        -1.3082   -1.0320   -3.7281 H         1 <0>         0.1007
     48 H18         2.2983   -0.3897   -3.0788 H         1 <0>         0.1136
     49 H19         4.0703   -2.0191   -3.5901 H         1 <0>         0.1258
     50 H20         3.5240   -4.0990   -4.7882 H         1 <0>         0.1300
     51 H21        -0.5803   -2.9187   -4.9501 H         1 <0>         0.1295
     52 H22         0.8970   -5.5231   -5.0313 H         1 <0>         0.3930
     53 H23        -1.8551    3.7245   -3.9809 H         1 <0>         0.1474
     54 H24         0.4178    6.5242   -6.2619 H         1 <0>         0.1512
     55 H25         2.2548    4.9004   -6.4506 H         1 <0>         0.1522
     56 H26         0.5215   -1.0972    5.0501 H         1 <0>         0.4346
@<TRIPOS>BOND
     1    1    2 1
     2    1   31 1
     3    1   32 1
     4    1   33 1
     5    2    3 1
     6    2    9 am
     7    3    8 1
     8    3    4 1
     9    3   34 1
    10    4    5 1
    11    4   35 1
    12    4   36 1
    13    5    6 1
    14    5   37 1
    15    5   38 1
    16    6    7 1
    17    6   39 1
    18    6   56 1
    19    7    8 1
    20    7   40 1
    21    7   41 1
    22    8   42 1
    23    8   43 1
    24    9   10 2
    25    9   11 am
    26   11   15 1
    27   11   12 1
    28   12   13 1
    29   12   44 1
    30   12   45 1
    31   13   14 2
    32   13   23 1
    33   14   15 1
    34   14   46 1
    35   15   16 1
    36   15   47 1
    37   16   21 ar
    38   16   17 ar
    39   17   18 ar
    40   17   48 1
    41   18   19 ar
    42   18   49 1
    43   19   20 ar
    44   19   50 1
    45   20   21 ar
    46   20   22 1
    47   21   51 1
    48   22   52 1
    49   23   28 ar
    50   23   24 ar
    51   24   25 ar
    52   24   53 1
    53   25   26 ar
    54   25   30 1
    55   26   27 ar
    56   26   54 1
    57   27   28 ar
    58   27   55 1
    59   28   29 1
@<TRIPOS>MOLECULE
CHEMBL250328
   56    59     0     0     0
SMALL
USER_CHARGES

@<TRIPOS>ATOM
      1 C1         -1.1448    1.1318    0.8205 C.3       1 <0>        -0.1995
      2 C2         -0.7440   -0.2939    0.5418 C.2       1 <0>         0.4328
      3 O1         -0.7260   -1.1072    1.4441 O.2       1 <0>        -0.4511
      4 C3         -0.3905   -0.6832   -0.7637 C.2       1 <0>        -0.0902
      5 N1         -0.4013    0.0817   -1.8188 N.2       1 <0>        -0.1182
      6 N2          0.0144   -0.4494   -2.8940 N.pl3     1 <0>        -0.3729
      7 C4          0.4081    0.1505   -4.0955 C.ar      1 <0>         0.1240
      8 C5         -0.0362    1.4052   -4.4650 C.ar      1 <0>        -0.1304
      9 C6          0.3904    1.9582   -5.6616 C.ar      1 <0>         0.1016
     10 C7          1.2582    1.2514   -6.4776 C.ar      1 <0>        -0.1220
     11 C8          1.7003   -0.0055   -6.1113 C.ar      1 <0>        -0.0886
     12 C9          1.2777   -0.5720   -4.9180 C.ar      1 <0>         0.0982
     13 O2          1.6975   -1.8159   -4.5722 O.3       1 <0>        -0.3038
     14 C10         1.5790   -2.2519   -3.2147 C.3       1 <0>         0.0594
     15 C11         0.1706   -1.9152   -2.7139 C.3       1 <0>         0.0446
     16 H1         -0.5970   -2.4808   -3.2422 H         1 <0>         0.1221
     17 C12         0.0761   -2.0659   -1.1855 C.3       1 <0>         0.0175
     18 C13        -0.9549   -3.1306   -0.8055 C.3       1 <0>        -0.0976
     19 C14        -2.3134   -2.7620   -1.4051 C.3       1 <0>        -0.1555
     20 C15        -3.3709   -3.7565   -0.9219 C.3       1 <0>        -0.0088
     21 N3         -4.6753   -3.4025   -1.4976 N.4       1 <0>        -0.3881
     22 C16        -4.6268   -3.5652   -2.9567 C.3       1 <0>        -0.0526
     23 C17        -5.7113   -4.2827   -0.9408 C.3       1 <0>        -0.0474
     24 C18         1.4225   -2.3855   -0.5888 C.ar      1 <0>        -0.0833
     25 C19         2.1154   -1.4164    0.1124 C.ar      1 <0>        -0.0990
     26 C20         3.3505   -1.7095    0.6597 C.ar      1 <0>        -0.1100
     27 C21         3.8925   -2.9719    0.5062 C.ar      1 <0>        -0.1068
     28 C22         3.1992   -3.9413   -0.1942 C.ar      1 <0>        -0.1114
     29 C23         1.9622   -3.6494   -0.7379 C.ar      1 <0>        -0.1185
     30 F1         -0.0395    3.1842   -6.0319 F         1 <0>        -0.1263
     31 H2         -0.2607    1.7132    1.0823 H         1 <0>         0.1007
     32 H3         -1.6102    1.5586   -0.0679 H         1 <0>         0.0881
     33 H4         -1.8532    1.1549    1.6485 H         1 <0>         0.0906
     34 H5         -0.7128    1.9519   -3.8248 H         1 <0>         0.1512
     35 H6          1.5919    1.6862   -7.4081 H         1 <0>         0.1537
     36 H7          2.3766   -0.5477   -6.7555 H         1 <0>         0.1557
     37 H8          1.7386   -3.3288   -3.1610 H         1 <0>         0.1294
     38 H9          2.3183   -1.7388   -2.5998 H         1 <0>         0.0855
     39 H10        -0.6373   -4.0986   -1.1931 H         1 <0>         0.0867
     40 H11        -1.0392   -3.1837    0.2799 H         1 <0>         0.1047
     41 H12        -2.5892   -1.7560   -1.0889 H         1 <0>         0.0881
     42 H13        -2.2520   -2.7969   -2.4928 H         1 <0>         0.0846
     43 H14        -3.0951   -4.7625   -1.2381 H         1 <0>         0.1328
     44 H15        -3.4323   -3.7216    0.1659 H         1 <0>         0.1355
     45 H16        -5.5947   -3.3026   -3.3839 H         1 <0>         0.1258
     46 H17        -3.8581   -2.9121   -3.3698 H         1 <0>         0.1202
     47 H18        -4.3918   -4.6016   -3.1992 H         1 <0>         0.1239
     48 H19        -5.7472   -4.1620    0.1419 H         1 <0>         0.1247
     49 H20        -6.6791   -4.0201   -1.3680 H         1 <0>         0.1251
     50 H21        -5.4763   -5.3191   -1.1833 H         1 <0>         0.1228
     51 H22         1.6920   -0.4301    0.2323 H         1 <0>         0.1158
     52 H23         3.8921   -0.9522    1.2069 H         1 <0>         0.1277
     53 H24         4.8578   -3.2007    0.9332 H         1 <0>         0.1290
     54 H25         3.6228   -4.9274   -0.3145 H         1 <0>         0.1295
     55 H26         1.4189   -4.4078   -1.2819 H         1 <0>         0.1230
     56 H27        -4.8928   -2.4432   -1.2731 H         1 <0>         0.4269
@<TRIPOS>BOND
     1    1    2 1
     2    1   31 1
     3    1   32 1
     4    1   33 1
     5    2    3 2
     6    2    4 1
     7    4   17 1
     8    4    5 2
     9    5    6 1
    10    6   15 1
    11    6    7 1
    12    7   12 ar
    13    7    8 ar
    14    8    9 ar
    15    8   34 1
    16    9   10 ar
    17    9   30 1
    18   10   11 ar
    19   10   35 1
    20   11   12 ar
    21   11   36 1
    22   12   13 1
    23   13   14 1
    24   14   15 1
    25   14   37 1
    26   14   38 1
    27   15   16 1
    28   15   17 1
    29   17   18 1
    30   17   24 1
    31   18   19 1
    32   18   39 1
    33   18   40 1
    34   19   20 1
    35   19   41 1
    36   19   42 1
    37   20   21 1
    38   20   43 1
    39   20   44 1
    40   21   22 1
    41   21   23 1
    42   21   56 1
    43   22   45 1
    44   22   46 1
    45   22   47 1
    46   23   48 1
    47   23   49 1
    48   23   50 1
    49   24   29 ar
    50   24   25 ar
    51   25   26 ar
    52   25   51 1
    53   26   27 ar
    54   26   52 1
    55   27   28 ar
    56   27   53 1
    57   28   29 ar
    58   28   54 1
    59   29   55 1
@<TRIPOS>MOLECULE
CHEMBL209310
   64    67     0     0     0
SMALL
USER_CHARGES

@<TRIPOS>ATOM
      1 C1         -0.8054    1.8954    0.7061 C.3       1 <0>        -0.1655
      2 C2         -0.5684    0.3877    0.5992 C.3       1 <0>         0.1307
      3 N1         -1.8520   -0.2974    0.4279 N.am      1 <0>        -0.7322
      4 C3         -1.8891   -1.6396    0.3108 C.2       1 <0>         0.7424
      5 O1         -0.8573   -2.2819    0.3474 O.2       1 <0>        -0.5598
      6 N2         -3.0700   -2.2698    0.1532 N.am      1 <0>        -0.4684
      7 C4         -3.2459   -3.7115   -0.0838 C.3       1 <0>         0.2030
      8 C5         -4.7752   -3.8772   -0.1848 C.3       1 <0>        -0.1210
      9 C6         -5.3071   -2.4755    0.0113 C.2       1 <0>         0.1223
     10 N3         -4.3240   -1.6638    0.1941 N.2       1 <0>        -0.2142
     11 C7         -6.7322   -2.0970    0.0008 C.ar      1 <0>        -0.0340
     12 C8         -7.7151   -3.0696   -0.1962 C.ar      1 <0>        -0.1000
     13 C9         -9.0480   -2.7079   -0.2048 C.ar      1 <0>         0.0928
     14 C10        -9.4113   -1.3833   -0.0185 C.ar      1 <0>        -0.1082
     15 C11        -8.4438   -0.4150    0.1771 C.ar      1 <0>        -0.1256
     16 C12        -7.1065   -0.7633    0.1939 C.ar      1 <0>         0.1251
     17 F1         -6.1627    0.1831    0.3908 F         1 <0>        -0.1144
     18 F2        -10.0000   -3.6473   -0.3958 F         1 <0>        -0.1293
     19 C13        -2.6929   -4.5217    1.0904 C.3       1 <0>        -0.1216
     20 C14        -3.3305   -4.0328    2.3925 C.3       1 <0>        -0.1137
     21 C15        -2.6780   -4.7454    3.5788 C.3       1 <0>        -0.1293
     22 C16        -3.3156   -4.2565    4.8809 C.3       1 <0>         0.1213
     23 N4         -2.6908   -4.9389    6.0168 N.am      1 <0>        -0.7044
     24 C17        -3.0953   -4.6650    7.2729 C.2       1 <0>         0.6074
     25 O2         -3.9788   -3.8514    7.4634 O.2       1 <0>        -0.5407
     26 C18        -2.4667   -5.3516    8.4159 C.2       1 <0>         0.1388
     27 N5         -2.7855   -5.1708    9.7325 N.pl3     1 <0>        -0.5239
     28 H1         -3.4618   -4.5710   10.0844 H         1 <0>         0.4314
     29 C19        -1.9799   -5.9861   10.4533 C.2       1 <0>        -0.0190
     30 C20        -1.1883   -6.6465    9.5730 C.2       1 <0>        -0.0268
     31 N6         -1.5059   -6.2482    8.3433 N.2       1 <0>        -0.4426
     32 C21        -2.5817   -4.1220   -1.3727 C.ar      1 <0>        -0.0832
     33 C22        -2.0914   -5.4062   -1.5192 C.ar      1 <0>        -0.1029
     34 C23        -1.4821   -5.7827   -2.7015 C.ar      1 <0>        -0.1167
     35 C24        -1.3635   -4.8752   -3.7375 C.ar      1 <0>        -0.1143
     36 C25        -1.8545   -3.5913   -3.5914 C.ar      1 <0>        -0.1168
     37 C26        -2.4677   -3.2161   -2.4106 C.ar      1 <0>        -0.0994
     38 H2          0.1496    2.4052    0.8336 H         1 <0>         0.0768
     39 H3         -1.2893    2.2525   -0.2029 H         1 <0>         0.0624
     40 H4         -1.4452    2.1028    1.5639 H         1 <0>         0.0629
     41 H5          0.0714    0.1804   -0.2586 H         1 <0>         0.0674
     42 H6         -0.0844    0.0306    1.5082 H         1 <0>         0.0674
     43 H7         -2.6751    0.2149    0.3987 H         1 <0>         0.4070
     44 H8         -5.0544   -4.2581   -1.1671 H         1 <0>         0.1085
     45 H9         -5.1409   -4.5383    0.6009 H         1 <0>         0.1130
     46 H10        -7.4334   -4.1020   -0.3419 H         1 <0>         0.1521
     47 H11       -10.4551   -1.1061   -0.0266 H         1 <0>         0.1511
     48 H12        -8.7340    0.6152    0.3213 H         1 <0>         0.1529
     49 H13        -2.9257   -5.5766    0.9456 H         1 <0>         0.0832
     50 H14        -1.6120   -4.3921    1.1442 H         1 <0>         0.0934
     51 H15        -3.1819   -2.9572    2.4883 H         1 <0>         0.0653
     52 H16        -4.3980   -4.2524    2.3792 H         1 <0>         0.0659
     53 H17        -2.8265   -5.8210    3.4830 H         1 <0>         0.0745
     54 H18        -1.6104   -4.5258    3.5922 H         1 <0>         0.0743
     55 H19        -3.1670   -3.1810    4.9767 H         1 <0>         0.0703
     56 H20        -4.3831   -4.4761    4.8676 H         1 <0>         0.0720
     57 H21        -1.9860   -5.5878    5.8649 H         1 <0>         0.4140
     58 H22        -1.9696   -6.0905   11.5282 H         1 <0>         0.1895
     59 H23        -0.4316   -7.3744    9.8260 H         1 <0>         0.1813
     60 H24        -2.1841   -6.1152   -0.7098 H         1 <0>         0.1263
     61 H25        -1.0985   -6.7858   -2.8157 H         1 <0>         0.1252
     62 H26        -0.8868   -5.1692   -4.6610 H         1 <0>         0.1230
     63 H27        -1.7616   -2.8822   -4.4006 H         1 <0>         0.1213
     64 H28        -2.8546   -2.2141   -2.2978 H         1 <0>         0.1122
@<TRIPOS>BOND
     1    1    2 1
     2    1   38 1
     3    1   39 1
     4    1   40 1
     5    2    3 1
     6    2   41 1
     7    2   42 1
     8    3    4 am
     9    3   43 1
    10    4    5 2
    11    4    6 am
    12    6   10 1
    13    6    7 1
    14    7    8 1
    15    7   19 1
    16    7   32 1
    17    8    9 1
    18    8   44 1
    19    8   45 1
    20    9   10 2
    21    9   11 1
    22   11   16 ar
    23   11   12 ar
    24   12   13 ar
    25   12   46 1
    26   13   14 ar
    27   13   18 1
    28   14   15 ar
    29   14   47 1
    30   15   16 ar
    31   15   48 1
    32   16   17 1
    33   19   20 1
    34   19   49 1
    35   19   50 1
    36   20   21 1
    37   20   51 1
    38   20   52 1
    39   21   22 1
    40   21   53 1
    41   21   54 1
    42   22   23 1
    43   22   55 1
    44   22   56 1
    45   23   24 am
    46   23   57 1
    47   24   25 2
    48   24   26 1
    49   26   31 2
    50   26   27 1
    51   27   28 1
    52   27   29 1
    53   29   30 2
    54   29   58 1
    55   30   31 1
    56   30   59 1
    57   32   37 ar
    58   32   33 ar
    59   33   34 ar
    60   33   60 1
    61   34   35 ar
    62   34   61 1
    63   35   36 ar
    64   35   62 1
    65   36   37 ar
    66   36   63 1
    67   37   64 1
@<TRIPOS>MOLECULE
CHEMBL209310__1
   64    67     0     0     0
SMALL
USER_CHARGES

@<TRIPOS>ATOM
      1 C1          0.4316    1.2522    0.1437 C.3       1 <0>        -0.1655
      2 C2          0.3254   -0.2739    0.1147 C.3       1 <0>         0.1307
      3 N1         -1.0863   -0.6649    0.0948 N.am      1 <0>        -0.7321
      4 C3         -1.4239   -1.9694    0.0678 C.2       1 <0>         0.7414
      5 O1         -0.5568   -2.8218    0.0599 O.2       1 <0>        -0.5590
      6 N2         -2.7227   -2.3291    0.0495 N.am      1 <0>        -0.4684
      7 C4         -3.2281   -3.7048   -0.0830 C.3       1 <0>         0.2029
      8 C5         -4.7595   -3.5325   -0.0441 C.3       1 <0>        -0.1212
      9 C6         -4.9543   -2.0410    0.1100 C.2       1 <0>         0.1217
     10 N3         -3.8061   -1.4598    0.1590 N.2       1 <0>        -0.2137
     11 C7         -6.2582   -1.3578    0.1968 C.ar      1 <0>        -0.0340
     12 C8         -7.4424   -2.0965    0.1435 C.ar      1 <0>        -0.1001
     13 C9         -8.6601   -1.4499    0.2254 C.ar      1 <0>         0.0928
     14 C10        -8.7088   -0.0712    0.3602 C.ar      1 <0>        -0.1082
     15 C11        -7.5405    0.6666    0.4137 C.ar      1 <0>        -0.1256
     16 C12        -6.3149    0.0325    0.3387 C.ar      1 <0>         0.1251
     17 F1         -5.1743    0.7542    0.3968 F         1 <0>        -0.1144
     18 F2         -9.8065   -2.1628    0.1736 F         1 <0>        -0.1293
     19 C13        -2.7885   -4.3140   -1.4159 C.3       1 <0>        -0.1213
     20 C14        -3.2180   -3.3963   -2.5623 C.3       1 <0>        -0.1141
     21 C15        -2.8609   -4.0491   -3.8992 C.3       1 <0>        -0.1298
     22 C16        -3.2904   -3.1314   -5.0457 C.3       1 <0>         0.1210
     23 N4         -2.9485   -3.7565   -6.3258 N.am      1 <0>        -0.7047
     24 C17        -3.2351   -3.1254   -7.4817 C.2       1 <0>         0.6076
     25 O2         -3.7775   -2.0372   -7.4620 O.2       1 <0>        -0.5404
     26 C18        -2.8910   -3.7543   -8.7697 C.2       1 <0>         0.1386
     27 N5         -3.1204   -3.2218  -10.0073 N.pl3     1 <0>        -0.5239
     28 H1         -3.5370   -2.3670  -10.1985 H         1 <0>         0.4314
     29 C19        -2.6569   -4.1118  -10.9163 C.2       1 <0>        -0.0188
     30 C20        -2.1559   -5.1651  -10.2254 C.2       1 <0>        -0.0268
     31 N6         -2.3050   -4.9225   -8.9252 N.2       1 <0>        -0.4426
     32 C21        -2.7605   -4.5550    1.0701 C.ar      1 <0>        -0.0815
     33 C22        -2.5660   -5.9122    0.8939 C.ar      1 <0>        -0.1036
     34 C23        -2.1372   -6.6920    1.9517 C.ar      1 <0>        -0.1173
     35 C24        -1.9024   -6.1145    3.1855 C.ar      1 <0>        -0.1143
     36 C25        -2.0960   -4.7572    3.3615 C.ar      1 <0>        -0.1172
     37 C26        -2.5208   -3.9766    2.3026 C.ar      1 <0>        -0.0956
     38 H2          1.4819    1.5431    0.1585 H         1 <0>         0.0768
     39 H3         -0.0478    1.6667   -0.7432 H         1 <0>         0.0627
     40 H4         -0.0638    1.6339    1.0364 H         1 <0>         0.0627
     41 H5          0.8208   -0.6556   -0.7780 H         1 <0>         0.0675
     42 H6          0.8048   -0.6883    1.0015 H         1 <0>         0.0671
     43 H7         -1.7781    0.0151    0.1011 H         1 <0>         0.4070
     44 H8         -5.2074   -3.8826   -0.9741 H         1 <0>         0.1133
     45 H9         -5.1824   -4.0634    0.8088 H         1 <0>         0.1087
     46 H10        -7.4059   -3.1707    0.0382 H         1 <0>         0.1522
     47 H11        -9.6638    0.4292    0.4234 H         1 <0>         0.1511
     48 H12        -7.5859    1.7406    0.5185 H         1 <0>         0.1529
     49 H13        -1.7041   -4.4237   -1.4251 H         1 <0>         0.0900
     50 H14        -3.2537   -5.2919   -1.5395 H         1 <0>         0.0850
     51 H15        -4.2947   -3.2336   -2.5136 H         1 <0>         0.0667
     52 H16        -2.7017   -2.4403   -2.4754 H         1 <0>         0.0648
     53 H17        -1.7842   -4.2118   -3.9480 H         1 <0>         0.0741
     54 H18        -3.3772   -5.0051   -3.9861 H         1 <0>         0.0750
     55 H19        -4.3671   -2.9687   -4.9969 H         1 <0>         0.0721
     56 H20        -2.7742   -2.1754   -4.9588 H         1 <0>         0.0706
     57 H21        -2.5159   -4.6245   -6.3414 H         1 <0>         0.4139
     58 H22        -2.6820   -4.0032  -11.9906 H         1 <0>         0.1895
     59 H23        -1.7088   -6.0487  -10.6564 H         1 <0>         0.1813
     60 H24        -2.7495   -6.3633   -0.0700 H         1 <0>         0.1257
     61 H25        -1.9859   -7.7525    1.8142 H         1 <0>         0.1247
     62 H26        -1.5680   -6.7239    4.0121 H         1 <0>         0.1226
     63 H27        -1.9129   -4.3061    4.3255 H         1 <0>         0.1208
     64 H28        -2.6685   -2.9155    2.4391 H         1 <0>         0.1113
@<TRIPOS>BOND
     1    1    2 1
     2    1   38 1
     3    1   39 1
     4    1   40 1
     5    2    3 1
     6    2   41 1
     7    2   42 1
     8    3    4 am
     9    3   43 1
    10    4    5 2
    11    4    6 am
    12    6   10 1
    13    6    7 1
    14    7    8 1
    15    7   19 1
    16    7   32 1
    17    8    9 1
    18    8   44 1
    19    8   45 1
    20    9   10 2
    21    9   11 1
    22   11   16 ar
    23   11   12 ar
    24   12   13 ar
    25   12   46 1
    26   13   14 ar
    27   13   18 1
    28   14   15 ar
    29   14   47 1
    30   15   16 ar
    31   15   48 1
    32   16   17 1
    33   19   20 1
    34   19   49 1
    35   19   50 1
    36   20   21 1
    37   20   51 1
    38   20   52 1
    39   21   22 1
    40   21   53 1
    41   21   54 1
    42   22   23 1
    43   22   55 1
    44   22   56 1
    45   23   24 am
    46   23   57 1
    47   24   25 2
    48   24   26 1
    49   26   31 2
    50   26   27 1
    51   27   28 1
    52   27   29 1
    53   29   30 2
    54   29   58 1
    55   30   31 1
    56   30   59 1
    57   32   37 ar
    58   32   33 ar
    59   33   34 ar
    60   33   60 1
    61   34   35 ar
    62   34   61 1
    63   35   36 ar
    64   35   62 1
    65   36   37 ar
    66   36   63 1
    67   37   64 1
@<TRIPOS>MOLECULE
CHEMBL425420
   66    69     0     0     0
SMALL
USER_CHARGES

@<TRIPOS>ATOM
      1 C1         -0.8054    1.8954    0.7061 C.3       1 <0>        -0.1655
      2 C2         -0.5684    0.3877    0.5992 C.3       1 <0>         0.1307
      3 N1         -1.8520   -0.2974    0.4279 N.am      1 <0>        -0.7322
      4 C3         -1.8891   -1.6396    0.3108 C.2       1 <0>         0.7425
      5 O1         -0.8573   -2.2819    0.3474 O.2       1 <0>        -0.5602
      6 N2         -3.0700   -2.2698    0.1532 N.am      1 <0>        -0.4684
      7 C4         -3.2459   -3.7115   -0.0838 C.3       1 <0>         0.2030
      8 C5         -4.7752   -3.8772   -0.1848 C.3       1 <0>        -0.1209
      9 C6         -5.3071   -2.4755    0.0113 C.2       1 <0>         0.1225
     10 N3         -4.3240   -1.6638    0.1941 N.2       1 <0>        -0.2142
     11 C7         -6.7322   -2.0970    0.0008 C.ar      1 <0>        -0.0340
     12 C8         -7.7151   -3.0696   -0.1962 C.ar      1 <0>        -0.1000
     13 C9         -9.0480   -2.7079   -0.2048 C.ar      1 <0>         0.0928
     14 C10        -9.4113   -1.3833   -0.0185 C.ar      1 <0>        -0.1081
     15 C11        -8.4438   -0.4150    0.1771 C.ar      1 <0>        -0.1255
     16 C12        -7.1065   -0.7633    0.1939 C.ar      1 <0>         0.1253
     17 F1         -6.1627    0.1831    0.3908 F         1 <0>        -0.1144
     18 F2        -10.0000   -3.6473   -0.3958 F         1 <0>        -0.1294
     19 C13        -2.6929   -4.5217    1.0904 C.3       1 <0>        -0.1214
     20 C14        -3.3305   -4.0328    2.3925 C.3       1 <0>        -0.1137
     21 C15        -2.6780   -4.7454    3.5788 C.3       1 <0>        -0.1285
     22 C16        -3.3156   -4.2565    4.8809 C.3       1 <0>         0.1187
     23 N4         -2.6908   -4.9389    6.0168 N.am      1 <0>        -0.7108
     24 C17        -3.0953   -4.6650    7.2729 C.2       1 <0>         0.5708
     25 O2         -3.9782   -3.8520    7.4633 O.2       1 <0>        -0.5317
     26 C18        -2.4634   -5.3551    8.4218 C.ar      1 <0>         0.0751
     27 C19        -2.8899   -5.0718    9.7174 C.ar      1 <0>        -0.1108
     28 C20        -2.2894   -5.7253   10.7818 C.ar      1 <0>        -0.0804
     29 C21        -1.2828   -6.6398   10.5133 C.ar      1 <0>        -0.1480
     30 C22        -0.9091   -6.8723    9.1995 C.ar      1 <0>         0.0984
     31 N5         -1.4996   -6.2420    8.2076 N.ar      1 <0>        -0.4612
     32 C23        -2.5817   -4.1220   -1.3727 C.ar      1 <0>        -0.0830
     33 C24        -2.0914   -5.4062   -1.5192 C.ar      1 <0>        -0.1031
     34 C25        -1.4821   -5.7827   -2.7015 C.ar      1 <0>        -0.1168
     35 C26        -1.3635   -4.8752   -3.7375 C.ar      1 <0>        -0.1144
     36 C27        -1.8545   -3.5913   -3.5914 C.ar      1 <0>        -0.1167
     37 C28        -2.4677   -3.2161   -2.4106 C.ar      1 <0>        -0.0994
     38 H1          0.1496    2.4052    0.8336 H         1 <0>         0.0768
     39 H2         -1.2893    2.2525   -0.2029 H         1 <0>         0.0624
     40 H3         -1.4452    2.1028    1.5639 H         1 <0>         0.0630
     41 H4          0.0714    0.1804   -0.2586 H         1 <0>         0.0673
     42 H5         -0.0844    0.0306    1.5082 H         1 <0>         0.0673
     43 H6         -2.6751    0.2149    0.3987 H         1 <0>         0.4070
     44 H7         -5.0544   -4.2581   -1.1671 H         1 <0>         0.1085
     45 H8         -5.1409   -4.5383    0.6009 H         1 <0>         0.1129
     46 H9         -7.4334   -4.1020   -0.3419 H         1 <0>         0.1520
     47 H10       -10.4551   -1.1061   -0.0266 H         1 <0>         0.1511
     48 H11        -8.7340    0.6152    0.3213 H         1 <0>         0.1530
     49 H12        -2.9257   -5.5766    0.9456 H         1 <0>         0.0827
     50 H13        -1.6120   -4.3921    1.1442 H         1 <0>         0.0930
     51 H14        -3.1819   -2.9572    2.4883 H         1 <0>         0.0651
     52 H15        -4.3980   -4.2524    2.3792 H         1 <0>         0.0656
     53 H16        -2.8265   -5.8210    3.4830 H         1 <0>         0.0730
     54 H17        -1.6104   -4.5258    3.5922 H         1 <0>         0.0728
     55 H18        -3.1670   -3.1810    4.9767 H         1 <0>         0.0684
     56 H19        -4.3831   -4.4761    4.8676 H         1 <0>         0.0701
     57 H20        -1.9860   -5.5878    5.8649 H         1 <0>         0.4119
     58 H21        -3.6771   -4.3528    9.8899 H         1 <0>         0.1490
     59 H22        -2.5983   -5.5263   11.7974 H         1 <0>         0.1443
     60 H23        -0.7943   -7.1656   11.3204 H         1 <0>         0.1429
     61 H24        -0.1252   -7.5841    8.9867 H         1 <0>         0.1649
     62 H25        -2.1841   -6.1152   -0.7098 H         1 <0>         0.1261
     63 H26        -1.0985   -6.7858   -2.8157 H         1 <0>         0.1251
     64 H27        -0.8868   -5.1692   -4.6610 H         1 <0>         0.1230
     65 H28        -1.7616   -2.8822   -4.4006 H         1 <0>         0.1214
     66 H29        -2.8546   -2.2141   -2.2978 H         1 <0>         0.1123
@<TRIPOS>BOND
     1    1    2 1
     2    1   38 1
     3    1   39 1
     4    1   40 1
     5    2    3 1
     6    2   41 1
     7    2   42 1
     8    3    4 am
     9    3   43 1
    10    4    5 2
    11    4    6 am
    12    6   10 1
    13    6    7 1
    14    7    8 1
    15    7   19 1
    16    7   32 1
    17    8    9 1
    18    8   44 1
    19    8   45 1
    20    9   10 2
    21    9   11 1
    22   11   16 ar
    23   11   12 ar
    24   12   13 ar
    25   12   46 1
    26   13   14 ar
    27   13   18 1
    28   14   15 ar
    29   14   47 1
    30   15   16 ar
    31   15   48 1
    32   16   17 1
    33   19   20 1
    34   19   49 1
    35   19   50 1
    36   20   21 1
    37   20   51 1
    38   20   52 1
    39   21   22 1
    40   21   53 1
    41   21   54 1
    42   22   23 1
    43   22   55 1
    44   22   56 1
    45   23   24 am
    46   23   57 1
    47   24   25 2
    48   24   26 1
    49   26   31 ar
    50   26   27 ar
    51   27   28 ar
    52   27   58 1
    53   28   29 ar
    54   28   59 1
    55   29   30 ar
    56   29   60 1
    57   30   31 ar
    58   30   61 1
    59   32   37 ar
    60   32   33 ar
    61   33   34 ar
    62   33   62 1
    63   34   35 ar
    64   34   63 1
    65   35   36 ar
    66   35   64 1
    67   36   37 ar
    68   36   65 1
    69   37   66 1
@<TRIPOS>MOLECULE
CHEMBL425420__1
   66    69     0     0     0
SMALL
USER_CHARGES

@<TRIPOS>ATOM
      1 C1          0.4316    1.2522    0.1437 C.3       1 <0>        -0.1655
      2 C2          0.3254   -0.2739    0.1147 C.3       1 <0>         0.1307
      3 N1         -1.0863   -0.6649    0.0948 N.am      1 <0>        -0.7321
      4 C3         -1.4239   -1.9694    0.0678 C.2       1 <0>         0.7416
      5 O1         -0.5568   -2.8218    0.0599 O.2       1 <0>        -0.5594
      6 N2         -2.7227   -2.3291    0.0495 N.am      1 <0>        -0.4684
      7 C4         -3.2281   -3.7048   -0.0830 C.3       1 <0>         0.2029
      8 C5         -4.7595   -3.5325   -0.0441 C.3       1 <0>        -0.1211
      9 C6         -4.9543   -2.0410    0.1100 C.2       1 <0>         0.1219
     10 N3         -3.8061   -1.4598    0.1590 N.2       1 <0>        -0.2137
     11 C7         -6.2582   -1.3578    0.1968 C.ar      1 <0>        -0.0340
     12 C8         -7.4424   -2.0965    0.1435 C.ar      1 <0>        -0.1001
     13 C9         -8.6601   -1.4499    0.2254 C.ar      1 <0>         0.0928
     14 C10        -8.7088   -0.0712    0.3602 C.ar      1 <0>        -0.1081
     15 C11        -7.5405    0.6666    0.4137 C.ar      1 <0>        -0.1255
     16 C12        -6.3149    0.0325    0.3387 C.ar      1 <0>         0.1253
     17 F1         -5.1743    0.7542    0.3968 F         1 <0>        -0.1144
     18 F2         -9.8065   -2.1628    0.1736 F         1 <0>        -0.1294
     19 C13        -2.7885   -4.3140   -1.4159 C.3       1 <0>        -0.1211
     20 C14        -3.2180   -3.3963   -2.5623 C.3       1 <0>        -0.1141
     21 C15        -2.8609   -4.0491   -3.8992 C.3       1 <0>        -0.1290
     22 C16        -3.2904   -3.1314   -5.0457 C.3       1 <0>         0.1185
     23 N4         -2.9485   -3.7565   -6.3258 N.am      1 <0>        -0.7111
     24 C17        -3.2351   -3.1254   -7.4817 C.2       1 <0>         0.5710
     25 O2         -3.7771   -2.0380   -7.4620 O.2       1 <0>        -0.5314
     26 C18        -2.8893   -3.7575   -8.7764 C.ar      1 <0>         0.0749
     27 C19        -3.1830   -3.0976   -9.9675 C.ar      1 <0>        -0.1107
     28 C20        -2.8535   -3.7015  -11.1706 C.ar      1 <0>        -0.0804
     29 C21        -2.2415   -4.9450  -11.1405 C.ar      1 <0>        -0.1479
     30 C22        -1.9789   -5.5433   -9.9187 C.ar      1 <0>         0.0984
     31 N5         -2.2974   -4.9453   -8.7914 N.ar      1 <0>        -0.4612
     32 C23        -2.7605   -4.5550    1.0701 C.ar      1 <0>        -0.0813
     33 C24        -2.5660   -5.9122    0.8939 C.ar      1 <0>        -0.1037
     34 C25        -2.1372   -6.6920    1.9517 C.ar      1 <0>        -0.1174
     35 C26        -1.9024   -6.1145    3.1855 C.ar      1 <0>        -0.1144
     36 C27        -2.0960   -4.7572    3.3615 C.ar      1 <0>        -0.1171
     37 C28        -2.5208   -3.9766    2.3026 C.ar      1 <0>        -0.0955
     38 H1          1.4819    1.5431    0.1585 H         1 <0>         0.0768
     39 H2         -0.0478    1.6667   -0.7432 H         1 <0>         0.0628
     40 H3         -0.0638    1.6339    1.0364 H         1 <0>         0.0627
     41 H4          0.8208   -0.6556   -0.7780 H         1 <0>         0.0674
     42 H5          0.8048   -0.6883    1.0015 H         1 <0>         0.0670
     43 H6         -1.7781    0.0151    0.1011 H         1 <0>         0.4071
     44 H7         -5.2074   -3.8826   -0.9741 H         1 <0>         0.1131
     45 H8         -5.1824   -4.0634    0.8088 H         1 <0>         0.1087
     46 H9         -7.4059   -3.1707    0.0382 H         1 <0>         0.1520
     47 H10        -9.6638    0.4292    0.4234 H         1 <0>         0.1511
     48 H11        -7.5859    1.7406    0.5185 H         1 <0>         0.1530
     49 H12        -1.7041   -4.4237   -1.4251 H         1 <0>         0.0896
     50 H13        -3.2537   -5.2919   -1.5395 H         1 <0>         0.0845
     51 H14        -4.2947   -3.2336   -2.5136 H         1 <0>         0.0665
     52 H15        -2.7017   -2.4403   -2.4754 H         1 <0>         0.0646
     53 H16        -1.7842   -4.2118   -3.9480 H         1 <0>         0.0726
     54 H17        -3.3772   -5.0051   -3.9861 H         1 <0>         0.0735
     55 H18        -4.3671   -2.9687   -4.9969 H         1 <0>         0.0703
     56 H19        -2.7742   -2.1754   -4.9588 H         1 <0>         0.0687
     57 H20        -2.5159   -4.6245   -6.3414 H         1 <0>         0.4119
     58 H21        -3.6610   -2.1292   -9.9536 H         1 <0>         0.1490
     59 H22        -3.0690   -3.2146  -12.1102 H         1 <0>         0.1444
     60 H23        -1.9723   -5.4426  -12.0604 H         1 <0>         0.1429
     61 H24        -1.5022   -6.5120   -9.8915 H         1 <0>         0.1649
     62 H25        -2.7495   -6.3633   -0.0700 H         1 <0>         0.1254
     63 H26        -1.9859   -7.7525    1.8142 H         1 <0>         0.1245
     64 H27        -1.5680   -6.7239    4.0121 H         1 <0>         0.1226
     65 H28        -1.9129   -4.3061    4.3255 H         1 <0>         0.1209
     66 H29        -2.6685   -2.9155    2.4391 H         1 <0>         0.1114
@<TRIPOS>BOND
     1    1    2 1
     2    1   38 1
     3    1   39 1
     4    1   40 1
     5    2    3 1
     6    2   41 1
     7    2   42 1
     8    3    4 am
     9    3   43 1
    10    4    5 2
    11    4    6 am
    12    6   10 1
    13    6    7 1
    14    7    8 1
    15    7   19 1
    16    7   32 1
    17    8    9 1
    18    8   44 1
    19    8   45 1
    20    9   10 2
    21    9   11 1
    22   11   16 ar
    23   11   12 ar
    24   12   13 ar
    25   12   46 1
    26   13   14 ar
    27   13   18 1
    28   14   15 ar
    29   14   47 1
    30   15   16 ar
    31   15   48 1
    32   16   17 1
    33   19   20 1
    34   19   49 1
    35   19   50 1
    36   20   21 1
    37   20   51 1
    38   20   52 1
    39   21   22 1
    40   21   53 1
    41   21   54 1
    42   22   23 1
    43   22   55 1
    44   22   56 1
    45   23   24 am
    46   23   57 1
    47   24   25 2
    48   24   26 1
    49   26   31 ar
    50   26   27 ar
    51   27   28 ar
    52   27   58 1
    53   28   29 ar
    54   28   59 1
    55   29   30 ar
    56   29   60 1
    57   30   31 ar
    58   30   61 1
    59   32   37 ar
    60   32   33 ar
    61   33   34 ar
    62   33   62 1
    63   34   35 ar
    64   34   63 1
    65   35   36 ar
    66   35   64 1
    67   36   37 ar
    68   36   65 1
    69   37   66 1
@<TRIPOS>MOLECULE
CHEMBL1164476
   50    54     0     0     0
SMALL
USER_CHARGES

@<TRIPOS>ATOM
      1 C1          1.1712   -0.4642    0.8294 C.ar      1 <0>        -0.0951
      2 C2          2.3431    0.2695    0.8008 C.ar      1 <0>        -0.1196
      3 C3          2.4285    1.4102    0.0245 C.ar      1 <0>        -0.0870
      4 C4          1.3424    1.8203   -0.7247 C.ar      1 <0>        -0.1322
      5 C5          0.1658    1.0861   -0.6978 C.ar      1 <0>         0.1139
      6 C6          0.0828   -0.0586    0.0819 C.ar      1 <0>        -0.1394
      7 O1         -0.9038    1.4874   -1.4338 O.3       1 <0>        -0.4967
      8 C7          3.7071    2.2073   -0.0042 C.3       1 <0>         0.2456
      9 C8          3.9480    2.8407    1.3478 C.2       1 <0>         0.0617
     10 C9          3.8153    4.1636    1.5854 C.2       1 <0>        -0.1382
     11 C10         4.1248    4.3751    2.9851 C.ar      1 <0>        -0.0933
     12 C11         4.1526    5.5204    3.7869 C.ar      1 <0>        -0.0518
     13 C12         4.4996    5.3471    5.1050 C.ar      1 <0>        -0.0603
     14 C13         4.8095    4.1007    5.6268 C.ar      1 <0>        -0.0911
     15 C14         4.7892    2.9516    4.8556 C.ar      1 <0>        -0.1149
     16 C15         4.4404    3.0976    3.5145 C.ar      1 <0>         0.1086
     17 N1          4.3234    2.1955    2.4959 N.pl3     1 <0>        -0.5738
     18 H1          4.4826    1.2418    2.5738 H         1 <0>         0.4164
     19 Cl1         4.5523    6.7326    6.1496 Cl        1 <0>        -0.0773
     20 C16         3.4227    5.1874    0.5510 C.3       1 <0>        -0.0630
     21 C17         2.7796    4.4699   -0.6418 C.3       1 <0>         0.1026
     22 N2          3.5956    3.2964   -0.9896 N.am      1 <0>        -0.6018
     23 C18         4.2245    3.2193   -2.1792 C.2       1 <0>         0.5764
     24 O2          4.2117    4.1706   -2.9365 O.2       1 <0>        -0.5269
     25 C19         4.9285    1.9808   -2.5624 C.ar      1 <0>        -0.2029
     26 C20         4.4111    0.7369   -2.1894 C.ar      1 <0>        -0.0498
     27 C21         5.0698   -0.4165   -2.5488 C.ar      1 <0>        -0.2071
     28 C22         6.2507   -0.3456   -3.2827 C.ar      1 <0>         0.2448
     29 C23         6.7688    0.8917   -3.6554 C.ar      1 <0>        -0.2069
     30 C24         6.1114    2.0485   -3.3043 C.ar      1 <0>        -0.0080
     31 N3          6.9142   -1.5129   -3.6440 N.pl3     1 <0>        -0.8677
     32 H2          1.1084   -1.3574    1.4331 H         1 <0>         0.1315
     33 H3          3.1929   -0.0490    1.3863 H         1 <0>         0.1197
     34 H4          1.4094    2.7119   -1.3304 H         1 <0>         0.1386
     35 H5         -0.8321   -0.6321    0.1043 H         1 <0>         0.1318
     36 H6         -0.9267    1.1191   -2.3276 H         1 <0>         0.3939
     37 H7          4.5426    1.5573   -0.2638 H         1 <0>         0.1249
     38 H8          3.9129    6.4953    3.3888 H         1 <0>         0.1409
     39 H9          5.0761    4.0237    6.6705 H         1 <0>         0.1335
     40 H10         5.0321    1.9861    5.2742 H         1 <0>         0.1383
     41 H11         2.7085    5.8878    0.9838 H         1 <0>         0.0883
     42 H12         4.3089    5.7272    0.2174 H         1 <0>         0.0812
     43 H13         1.7728    4.1487   -0.3748 H         1 <0>         0.0811
     44 H14         2.7339    5.1479   -1.4941 H         1 <0>         0.1053
     45 H15         3.4954    0.6813   -1.6194 H         1 <0>         0.1349
     46 H16         4.6706   -1.3778   -2.2609 H         1 <0>         0.1262
     47 H17         7.6853    0.9435   -4.2244 H         1 <0>         0.1285
     48 H18         6.5113    3.0079   -3.5978 H         1 <0>         0.1326
     49 H19         6.5543   -2.3755   -3.3846 H         1 <0>         0.4014
     50 H20         7.7371   -1.4646   -4.1553 H         1 <0>         0.4022
@<TRIPOS>BOND
     1    1    6 ar
     2    1    2 ar
     3    1   32 1
     4    2    3 ar
     5    2   33 1
     6    3    4 ar
     7    3    8 1
     8    4    5 ar
     9    4   34 1
    10    5    6 ar
    11    5    7 1
    12    6   35 1
    13    7   36 1
    14    8   22 1
    15    8    9 1
    16    8   37 1
    17    9   17 1
    18    9   10 2
    19   10   11 1
    20   10   20 1
    21   11   16 ar
    22   11   12 ar
    23   12   13 ar
    24   12   38 1
    25   13   14 ar
    26   13   19 1
    27   14   15 ar
    28   14   39 1
    29   15   16 ar
    30   15   40 1
    31   16   17 1
    32   17   18 1
    33   20   21 1
    34   20   41 1
    35   20   42 1
    36   21   22 1
    37   21   43 1
    38   21   44 1
    39   22   23 am
    40   23   24 2
    41   23   25 1
    42   25   30 ar
    43   25   26 ar
    44   26   27 ar
    45   26   45 1
    46   27   28 ar
    47   27   46 1
    48   28   29 ar
    49   28   31 1
    50   29   30 ar
    51   29   47 1
    52   30   48 1
    53   31   49 1
    54   31   50 1
@<TRIPOS>MOLECULE
CHEMBL1164476__1
   50    54     0     0     0
SMALL
USER_CHARGES

@<TRIPOS>ATOM
      1 C1          2.7358   -0.1203   -2.0823 C.ar      1 <0>        -0.0955
      2 C2          3.7274    0.7038   -1.5823 C.ar      1 <0>        -0.1208
      3 C3          3.3931    1.8062   -0.8180 C.ar      1 <0>        -0.0855
      4 C4          2.0668    2.0870   -0.5515 C.ar      1 <0>        -0.1336
      5 C5          1.0703    1.2620   -1.0518 C.ar      1 <0>         0.1133
      6 C6          1.4084    0.1564   -1.8190 C.ar      1 <0>        -0.1402
      7 O1         -0.2350    1.5361   -0.7911 O.3       1 <0>        -0.4968
      8 C7          4.4763    2.7021   -0.2748 C.3       1 <0>         0.2444
      9 C8          5.0976    3.4978   -1.4009 C.2       1 <0>         0.0645
     10 C9          4.8999    4.8225   -1.5748 C.2       1 <0>        -0.1407
     11 C10         5.6511    5.2113   -2.7514 C.ar      1 <0>        -0.0929
     12 C11         5.8203    6.4354   -3.4059 C.ar      1 <0>        -0.0525
     13 C12         6.6235    6.4373   -4.5207 C.ar      1 <0>        -0.0601
     14 C13         7.2415    5.2865   -4.9846 C.ar      1 <0>        -0.0914
     15 C14         7.0900    4.0626   -4.3565 C.ar      1 <0>        -0.1145
     16 C15         6.2813    4.0310   -3.2222 C.ar      1 <0>         0.1081
     17 N1          5.9242    3.0164   -2.3808 N.pl3     1 <0>        -0.5734
     18 H1          6.2129    2.0941   -2.4643 H         1 <0>         0.4168
     19 Cl1         6.8715    7.9278   -5.3754 Cl        1 <0>        -0.0774
     20 C16         4.0520    5.6897   -0.6797 C.3       1 <0>        -0.0627
     21 C17         3.1231    4.7937    0.1483 C.3       1 <0>         0.1006
     22 N2          3.8984    3.6633    0.6800 N.am      1 <0>        -0.6004
     23 C18         4.0757    3.5106    2.0073 C.2       1 <0>         0.5782
     24 O2          3.5307    4.2702    2.7849 O.2       1 <0>        -0.5249
     25 C19         4.9310    2.4219    2.5169 C.ar      1 <0>        -0.1989
     26 C20         5.8952    2.6875    3.4936 C.ar      1 <0>        -0.0125
     27 C21         6.6912    1.6698    3.9672 C.ar      1 <0>        -0.2042
     28 C22         6.5373    0.3768    3.4743 C.ar      1 <0>         0.2422
     29 C23         5.5782    0.1093    2.5013 C.ar      1 <0>        -0.2048
     30 C24         4.7749    1.1215    2.0282 C.ar      1 <0>        -0.0447
     31 N3          7.3434   -0.6492    3.9546 N.pl3     1 <0>        -0.8683
     32 H2          2.9993   -0.9784   -2.6828 H         1 <0>         0.1311
     33 H3          4.7647    0.4855   -1.7889 H         1 <0>         0.1203
     34 H4          1.8062    2.9480    0.0462 H         1 <0>         0.1402
     35 H5          0.6343   -0.4873   -2.2100 H         1 <0>         0.1313
     36 H6         -0.6550    2.1097   -1.4465 H         1 <0>         0.3935
     37 H7          5.2394    2.1016    0.2205 H         1 <0>         0.1255
     38 H8          5.3420    7.3367   -3.0519 H         1 <0>         0.1408
     39 H9          7.8622    5.3469   -5.8664 H         1 <0>         0.1334
     40 H10         7.5762    3.1728   -4.7284 H         1 <0>         0.1383
     41 H11         4.6950    6.2639   -0.0127 H         1 <0>         0.0807
     42 H12         3.4559    6.3694   -1.2886 H         1 <0>         0.0884
     43 H13         2.7024    5.3682    0.9736 H         1 <0>         0.1061
     44 H14         2.3187    4.4185   -0.4844 H         1 <0>         0.0806
     45 H15         6.0156    3.6904    3.8758 H         1 <0>         0.1307
     46 H16         7.4363    1.8743    4.7217 H         1 <0>         0.1285
     47 H17         5.4614   -0.8947    2.1207 H         1 <0>         0.1269
     48 H18         4.0279    0.9124    1.2768 H         1 <0>         0.1289
     49 H19         8.0121   -0.4639    4.6323 H         1 <0>         0.4020
     50 H20         7.2370   -1.5504    3.6119 H         1 <0>         0.4013
@<TRIPOS>BOND
     1    1    6 ar
     2    1    2 ar
     3    1   32 1
     4    2    3 ar
     5    2   33 1
     6    3    4 ar
     7    3    8 1
     8    4    5 ar
     9    4   34 1
    10    5    6 ar
    11    5    7 1
    12    6   35 1
    13    7   36 1
    14    8   22 1
    15    8    9 1
    16    8   37 1
    17    9   17 1
    18    9   10 2
    19   10   11 1
    20   10   20 1
    21   11   16 ar
    22   11   12 ar
    23   12   13 ar
    24   12   38 1
    25   13   14 ar
    26   13   19 1
    27   14   15 ar
    28   14   39 1
    29   15   16 ar
    30   15   40 1
    31   16   17 1
    32   17   18 1
    33   20   21 1
    34   20   41 1
    35   20   42 1
    36   21   22 1
    37   21   43 1
    38   21   44 1
    39   22   23 am
    40   23   24 2
    41   23   25 1
    42   25   30 ar
    43   25   26 ar
    44   26   27 ar
    45   26   45 1
    46   27   28 ar
    47   27   46 1
    48   28   29 ar
    49   28   31 1
    50   29   30 ar
    51   29   47 1
    52   30   48 1
    53   31   49 1
    54   31   50 1
@<TRIPOS>MOLECULE
CHEMBL399296
   58    62     0     0     0
SMALL
USER_CHARGES

@<TRIPOS>ATOM
      1 C1          0.8247    1.9432   -0.3961 C.ar      1 <0>        -0.1442
      2 C2          2.0977    2.4821   -0.4862 C.ar      1 <0>        -0.0928
      3 C3          3.2366    1.6961   -0.4591 C.ar      1 <0>        -0.1286
      4 C4          3.0507    0.3206   -0.3352 C.ar      1 <0>         0.1075
      5 C5          1.7454   -0.2252   -0.2421 C.ar      1 <0>        -0.1010
      6 C6          0.6116    0.5923   -0.2729 C.ar      1 <0>        -0.0670
      7 C7          1.9158   -1.6617   -0.1237 C.2       1 <0>        -0.1537
      8 C8          3.2444   -1.8987   -0.1473 C.2       1 <0>         0.0620
      9 N1          3.9309   -0.7211   -0.2777 N.pl3     1 <0>        -0.5721
     10 H1          4.8964   -0.6396   -0.3226 H         1 <0>         0.4197
     11 C9          3.8527   -3.2825   -0.0325 C.3       1 <0>         0.2964
     12 H2          4.5390   -3.4595   -0.8606 H         1 <0>         0.1243
     13 N2          2.7337   -4.2309   -0.0936 N.am      1 <0>        -0.6074
     14 C10         1.4337   -3.9943    0.5720 C.3       1 <0>         0.0836
     15 H3          1.5362   -3.9553    1.6565 H         1 <0>         0.1404
     16 C11         0.8345   -2.7062   -0.0050 C.3       1 <0>        -0.0360
     17 C12         0.6054   -5.1836    0.1298 C.2       1 <0>         0.5306
     18 O1         -0.5583   -5.4015    0.3907 O.2       1 <0>        -0.4567
     19 N3          1.4292   -5.9497   -0.6142 N.am      1 <0>        -0.5782
     20 C13         2.6503   -5.4061   -0.7199 C.2       1 <0>         0.7136
     21 O2          3.5738   -5.9237   -1.3169 O.2       1 <0>        -0.5359
     22 C14         1.0381   -7.2200   -1.2304 C.3       1 <0>         0.1180
     23 C15         0.4846   -6.9577   -2.6324 C.3       1 <0>        -0.1378
     24 C16         0.0762   -8.2844   -3.2759 C.3       1 <0>        -0.1148
     25 C17        -0.4773   -8.0221   -4.6779 C.3       1 <0>        -0.1518
     26 C18        -0.8858   -9.3488   -5.3214 C.3       1 <0>        -0.0097
     27 N4         -1.4172   -9.0970   -6.6676 N.4       1 <0>        -0.6386
     28 C19         4.5800   -3.4207    1.2801 C.ar      1 <0>        -0.0974
     29 C20         5.9551   -3.5667    1.2960 C.ar      1 <0>        -0.1091
     30 C21         6.6252   -3.6937    2.4984 C.ar      1 <0>        -0.0973
     31 C22         5.9222   -3.6756    3.6877 C.ar      1 <0>        -0.1324
     32 C23         4.5429   -3.5293    3.6745 C.ar      1 <0>         0.1102
     33 C24         3.8732   -3.3959    2.4666 C.ar      1 <0>        -0.1258
     34 O3          3.8491   -3.5112    4.8429 O.3       1 <0>        -0.4969
     35 H4         -0.0270    2.6069   -0.4190 H         1 <0>         0.1216
     36 H5          2.2051    3.5526   -0.5813 H         1 <0>         0.1248
     37 H6          4.2236    2.1287   -0.5311 H         1 <0>         0.1309
     38 H7         -0.3845    0.1808   -0.2027 H         1 <0>         0.1304
     39 H8          0.0485   -2.3425    0.6567 H         1 <0>         0.1021
     40 H9          0.4156   -2.9097   -0.9905 H         1 <0>         0.0822
     41 H10         1.9079   -7.8733   -1.2995 H         1 <0>         0.1003
     42 H11         0.2717   -7.6988   -0.6208 H         1 <0>         0.0982
     43 H12        -0.3852   -6.3045   -2.5633 H         1 <0>         0.0737
     44 H13         1.2510   -6.4790   -3.2419 H         1 <0>         0.0755
     45 H14         0.9460   -8.9377   -3.3450 H         1 <0>         0.0805
     46 H15        -0.6902   -8.7631   -2.6664 H         1 <0>         0.0801
     47 H16        -1.3471   -7.3689   -4.6088 H         1 <0>         0.0889
     48 H17         0.2891   -7.5434   -5.2875 H         1 <0>         0.0889
     49 H18        -0.0159  -10.0021   -5.3905 H         1 <0>         0.1347
     50 H19        -1.6522   -9.8275   -4.7119 H         1 <0>         0.1348
     51 H20        -2.2224   -8.4922   -6.6036 H         1 <0>         0.4355
     52 H21        -0.7077   -8.6538   -7.2318 H         1 <0>         0.4355
     53 H22         6.5063   -3.5818    0.3674 H         1 <0>         0.1302
     54 H23         7.6991   -3.8076    2.5082 H         1 <0>         0.1346
     55 H24         6.4461   -3.7756    4.6268 H         1 <0>         0.1342
     56 H25         2.7999   -3.2771    2.4539 H         1 <0>         0.1277
     57 H26         3.7410   -2.6283    5.2225 H         1 <0>         0.3952
     58 H27        -1.6866   -9.9719   -7.0919 H         1 <0>         0.4389
@<TRIPOS>BOND
     1    1    6 ar
     2    1    2 ar
     3    1   35 1
     4    2    3 ar
     5    2   36 1
     6    3    4 ar
     7    3   37 1
     8    4    9 1
     9    4    5 ar
    10    5    6 ar
    11    5    7 1
    12    6   38 1
    13    7   16 1
    14    7    8 2
    15    8    9 1
    16    8   11 1
    17    9   10 1
    18   11   12 1
    19   11   13 1
    20   11   28 1
    21   13   20 am
    22   13   14 1
    23   14   15 1
    24   14   16 1
    25   14   17 1
    26   16   39 1
    27   16   40 1
    28   17   18 2
    29   17   19 am
    30   19   20 am
    31   19   22 1
    32   20   21 2
    33   22   23 1
    34   22   41 1
    35   22   42 1
    36   23   24 1
    37   23   43 1
    38   23   44 1
    39   24   25 1
    40   24   45 1
    41   24   46 1
    42   25   26 1
    43   25   47 1
    44   25   48 1
    45   26   27 1
    46   26   49 1
    47   26   50 1
    48   27   51 1
    49   27   52 1
    50   27   58 1
    51   28   33 ar
    52   28   29 ar
    53   29   30 ar
    54   29   53 1
    55   30   31 ar
    56   30   54 1
    57   31   32 ar
    58   31   55 1
    59   32   33 ar
    60   32   34 1
    61   33   56 1
    62   34   57 1
@<TRIPOS>MOLECULE
CHEMBL590124
   53    56     0     0     0
SMALL
USER_CHARGES

@<TRIPOS>ATOM
      1 C1          0.0364    1.5472    0.0560 C.3       1 <0>        -0.1480
      2 C2          0.0476    0.0173    0.0436 C.3       1 <0>        -0.0834
      3 C3          0.7417   -0.4699   -1.2021 C.ar      1 <0>        -0.0987
      4 C4          0.0060   -0.6900   -2.3587 C.ar      1 <0>        -0.0883
      5 C5          0.6215   -1.1347   -3.5079 C.ar      1 <0>        -0.1242
      6 C6          1.9930   -1.3667   -3.5127 C.ar      1 <0>         0.1000
      7 C7          2.7353   -1.1423   -2.3374 C.ar      1 <0>        -0.0943
      8 C8          2.0904   -0.6859   -1.1856 C.ar      1 <0>        -0.0717
      9 C9          4.1182   -1.4744   -2.6684 C.2       1 <0>        -0.1630
     10 C10         4.1379   -1.8596   -3.9589 C.2       1 <0>         0.0673
     11 N1          2.8760   -1.8023   -4.4768 N.pl3     1 <0>        -0.5779
     12 H1          2.6366   -2.0340   -5.3878 H         1 <0>         0.4171
     13 C11         5.3981   -2.2793   -4.6840 C.3       1 <0>         0.2576
     14 N2          6.4541   -2.4474   -3.6708 N.am      1 <0>        -0.5890
     15 C12         6.5907   -1.4207   -2.6268 C.3       1 <0>         0.0911
     16 C13         5.3221   -1.4153   -1.7644 C.3       1 <0>        -0.0606
     17 C14         7.2748   -3.5162   -3.6998 C.2       1 <0>         0.5278
     18 O1          7.1488   -4.3542   -4.5673 O.2       1 <0>        -0.5293
     19 C15         8.3490   -3.6698   -2.6541 C.3       1 <0>        -0.1765
     20 C16         9.1331   -4.9577   -2.9138 C.3       1 <0>         0.0063
     21 N3         10.1803   -5.1075   -1.8945 N.4       1 <0>        -0.6366
     22 C17         5.8001   -1.2137   -5.6709 C.ar      1 <0>        -0.0952
     23 C18         5.9890   -1.5403   -7.0014 C.ar      1 <0>        -0.1094
     24 C19         6.3578   -0.5651   -7.9092 C.ar      1 <0>        -0.0992
     25 C20         6.5391    0.7385   -7.4890 C.ar      1 <0>        -0.1328
     26 C21         6.3503    1.0686   -6.1551 C.ar      1 <0>         0.1084
     27 C22         5.9742    0.0892   -5.2470 C.ar      1 <0>        -0.1275
     28 O2          6.5280    2.3502   -5.7393 O.3       1 <0>        -0.4981
     29 H2          1.0612    1.9182    0.0424 H         1 <0>         0.0542
     30 H3         -0.4944    1.9138   -0.8226 H         1 <0>         0.0559
     31 H4         -0.4656    1.8996    0.9571 H         1 <0>         0.0592
     32 H5          0.5784   -0.3493    0.9222 H         1 <0>         0.0704
     33 H6         -0.9772   -0.3537    0.0573 H         1 <0>         0.0727
     34 H7         -1.0591   -0.5111   -2.3573 H         1 <0>         0.1286
     35 H8          0.0407   -1.3032   -4.4027 H         1 <0>         0.1230
     36 H9          2.6561   -0.5078   -0.2831 H         1 <0>         0.1205
     37 H10         5.2298   -3.2224   -5.2038 H         1 <0>         0.1214
     38 H11         7.4550   -1.6477   -2.0027 H         1 <0>         0.0911
     39 H12         6.7205   -0.4432   -3.0911 H         1 <0>         0.0924
     40 H13         5.2883   -0.5019   -1.1706 H         1 <0>         0.0914
     41 H14         5.3257   -2.2824   -1.1040 H         1 <0>         0.0761
     42 H15         9.0259   -2.8167   -2.7004 H         1 <0>         0.1210
     43 H16         7.8905   -3.7166   -1.6663 H         1 <0>         0.1214
     44 H17         8.4562   -5.8108   -2.8674 H         1 <0>         0.1440
     45 H18         9.5916   -4.9109   -3.9016 H         1 <0>         0.1439
     46 H19        10.6974   -5.9568   -2.0658 H         1 <0>         0.4435
     47 H20        10.8068   -4.3178   -1.9374 H         1 <0>         0.4356
     48 H21         5.8485   -2.5589   -7.3317 H         1 <0>         0.1288
     49 H22         6.5047   -0.8227   -8.9477 H         1 <0>         0.1337
     50 H23         6.8279    1.4998   -8.1985 H         1 <0>         0.1339
     51 H24         5.8220    0.3446   -4.2087 H         1 <0>         0.1331
     52 H25         5.7281    2.8919   -5.7817 H         1 <0>         0.3963
     53 H26         9.7558   -5.1507   -0.9801 H         1 <0>         0.4356
@<TRIPOS>BOND
     1    1    2 1
     2    1   29 1
     3    1   30 1
     4    1   31 1
     5    2    3 1
     6    2   32 1
     7    2   33 1
     8    3    8 ar
     9    3    4 ar
    10    4    5 ar
    11    4   34 1
    12    5    6 ar
    13    5   35 1
    14    6   11 1
    15    6    7 ar
    16    7    8 ar
    17    7    9 1
    18    8   36 1
    19    9   16 1
    20    9   10 2
    21   10   11 1
    22   10   13 1
    23   11   12 1
    24   13   14 1
    25   13   22 1
    26   13   37 1
    27   14   15 1
    28   14   17 am
    29   15   16 1
    30   15   38 1
    31   15   39 1
    32   16   40 1
    33   16   41 1
    34   17   18 2
    35   17   19 1
    36   19   20 1
    37   19   42 1
    38   19   43 1
    39   20   21 1
    40   20   44 1
    41   20   45 1
    42   21   46 1
    43   21   47 1
    44   21   53 1
    45   22   27 ar
    46   22   23 ar
    47   23   24 ar
    48   23   48 1
    49   24   25 ar
    50   24   49 1
    51   25   26 ar
    52   25   50 1
    53   26   27 ar
    54   26   28 1
    55   27   51 1
    56   28   52 1
@<TRIPOS>MOLECULE
CHEMBL590124__1
   53    56     0     0     0
SMALL
USER_CHARGES

@<TRIPOS>ATOM
      1 C1          0.8010    1.3811    0.9139 C.3       1 <0>        -0.1477
      2 C2          0.8603   -0.1476    0.8951 C.3       1 <0>        -0.0836
      3 C3          1.3469   -0.6150   -0.4524 C.ar      1 <0>        -0.0987
      4 C4          0.4320   -0.8623   -1.4669 C.ar      1 <0>        -0.0883
      5 C5          0.8562   -1.2905   -2.7054 C.ar      1 <0>        -0.1241
      6 C6          2.2136   -1.4771   -2.9453 C.ar      1 <0>         0.1002
      7 C7          3.1381   -1.2246   -1.9137 C.ar      1 <0>        -0.0942
      8 C8          2.6849   -0.7865   -0.6673 C.ar      1 <0>        -0.0717
      9 C9          4.4544   -1.5104   -2.4776 C.2       1 <0>        -0.1630
     10 C10         4.2656   -1.9021   -3.7524 C.2       1 <0>         0.0682
     11 N1          2.9327   -1.8859   -4.0474 N.pl3     1 <0>        -0.5780
     12 H1          2.5489   -2.1266   -4.9052 H         1 <0>         0.4168
     13 C11         5.3952   -2.2967   -4.6787 C.3       1 <0>         0.2577
     14 N2          6.6567   -1.9023   -4.0283 N.am      1 <0>        -0.5891
     15 C12         6.8273   -2.1977   -2.5977 C.3       1 <0>         0.0913
     16 C13         5.7935   -1.3962   -1.7967 C.3       1 <0>        -0.0605
     17 C14         7.6308   -1.2864   -4.7270 C.2       1 <0>         0.5272
     18 O1          7.4745   -1.0503   -5.9064 O.2       1 <0>        -0.5286
     19 C15         8.9141   -0.8910   -4.0430 C.3       1 <0>        -0.1758
     20 C16         9.8429   -0.2145   -5.0532 C.3       1 <0>         0.0061
     21 N3         11.0939    0.1709   -4.3864 N.4       1 <0>        -0.6366
     22 C17         5.3780   -3.7870   -4.9017 C.ar      1 <0>        -0.0943
     23 C18         5.4004   -4.6477   -3.8196 C.ar      1 <0>        -0.1108
     24 C19         5.3846   -6.0154   -4.0208 C.ar      1 <0>        -0.1005
     25 C20         5.3468   -6.5256   -5.3042 C.ar      1 <0>        -0.1324
     26 C21         5.3243   -5.6644   -6.3913 C.ar      1 <0>         0.1105
     27 C22         5.3340   -4.2920   -6.1865 C.ar      1 <0>        -0.1270
     28 O2          5.2871   -6.1638   -7.6547 O.3       1 <0>        -0.4974
     29 H2          1.7957    1.7856    0.7264 H         1 <0>         0.0534
     30 H3          0.1161    1.7277    0.1400 H         1 <0>         0.0557
     31 H4          0.4491    1.7191    1.8885 H         1 <0>         0.0592
     32 H5          1.5452   -0.4942    1.6690 H         1 <0>         0.0709
     33 H6         -0.1343   -0.5521    1.0826 H         1 <0>         0.0729
     34 H7         -0.6224   -0.7179   -1.2832 H         1 <0>         0.1286
     35 H8          0.1369   -1.4811   -3.4881 H         1 <0>         0.1229
     36 H9          3.3904   -0.5875    0.1258 H         1 <0>         0.1205
     37 H10         5.2916   -1.7774   -5.6315 H         1 <0>         0.1199
     38 H11         6.6767   -3.2633   -2.4247 H         1 <0>         0.0925
     39 H12         7.8319   -1.9140   -2.2838 H         1 <0>         0.0911
     40 H13         6.0946   -0.3494   -1.7564 H         1 <0>         0.0758
     41 H14         5.7244   -1.7973   -0.7855 H         1 <0>         0.0917
     42 H15         8.6943   -0.1982   -3.2308 H         1 <0>         0.1215
     43 H16         9.4002   -1.7799   -3.6409 H         1 <0>         0.1210
     44 H17        10.0627   -0.9073   -5.8654 H         1 <0>         0.1440
     45 H18         9.3568    0.6744   -5.4553 H         1 <0>         0.1440
     46 H19        11.7065    0.6171   -5.0526 H         1 <0>         0.4436
     47 H20        10.8905    0.8123   -3.6345 H         1 <0>         0.4356
     48 H21         5.4306   -4.2508   -2.8156 H         1 <0>         0.1297
     49 H22         5.4022   -6.6855   -3.1740 H         1 <0>         0.1326
     50 H23         5.3352   -7.5941   -5.4609 H         1 <0>         0.1340
     51 H24         5.3117   -3.6194   -7.0312 H         1 <0>         0.1313
     52 H25         4.3932   -6.3018   -7.9968 H         1 <0>         0.3963
     53 H26        11.5439   -0.6519   -4.0142 H         1 <0>         0.4356
@<TRIPOS>BOND
     1    1    2 1
     2    1   29 1
     3    1   30 1
     4    1   31 1
     5    2    3 1
     6    2   32 1
     7    2   33 1
     8    3    8 ar
     9    3    4 ar
    10    4    5 ar
    11    4   34 1
    12    5    6 ar
    13    5   35 1
    14    6   11 1
    15    6    7 ar
    16    7    8 ar
    17    7    9 1
    18    8   36 1
    19    9   16 1
    20    9   10 2
    21   10   11 1
    22   10   13 1
    23   11   12 1
    24   13   14 1
    25   13   22 1
    26   13   37 1
    27   14   15 1
    28   14   17 am
    29   15   16 1
    30   15   38 1
    31   15   39 1
    32   16   40 1
    33   16   41 1
    34   17   18 2
    35   17   19 1
    36   19   20 1
    37   19   42 1
    38   19   43 1
    39   20   21 1
    40   20   44 1
    41   20   45 1
    42   21   46 1
    43   21   47 1
    44   21   53 1
    45   22   27 ar
    46   22   23 ar
    47   23   24 ar
    48   23   48 1
    49   24   25 ar
    50   24   49 1
    51   25   26 ar
    52   25   50 1
    53   26   27 ar
    54   26   28 1
    55   27   51 1
    56   28   52 1
