@<TRIPOS>MOLECULE
ZINC06219633
   34    35     0     0     0
SMALL
USER_CHARGES
6-[(2,4,6-trichlorophenyl)aminocarbamoyl]cyclohex-3-ene-1-carboxylic acid
@<TRIPOS>ATOM
      1 C1         -3.3690    4.8624   -7.0683 C.ar      1 <0>        -0.0590
      2 C2         -3.9312    6.0611   -6.6659 C.ar      1 <0>        -0.0652
      3 C3         -3.6606    6.5674   -5.4069 C.ar      1 <0>        -0.0567
      4 C4         -2.8281    5.8763   -4.5467 C.ar      1 <0>        -0.1038
      5 C5         -2.2625    4.6721   -4.9476 C.ar      1 <0>         0.2314
      6 C6         -2.5312    4.1694   -6.2147 C.ar      1 <0>        -0.0776
      7 Cl1        -1.8212    2.6690   -6.7228 Cl        1 <0>        -0.0480
      8 N1         -1.4196    3.9702   -4.0793 N.pl3     1 <0>        -0.5337
      9 N2         -1.6757    3.9703   -2.7019 N.am      1 <0>        -0.5073
     10 C7         -0.8066    3.3842   -1.8548 C.2       1 <0>         0.5408
     11 O1          0.1972    2.8567   -2.2849 O.2       1 <0>        -0.5426
     12 C8         -1.0822    3.3843   -0.3732 C.3       1 <0>        -0.0729
     13 H1         -2.0305    3.8847   -0.1770 H         1 <0>         0.0886
     14 C9         -1.1436    1.9448    0.1375 C.3       1 <0>        -0.0695
     15 C10         0.2252    1.3300    0.1227 C.2       1 <0>        -0.1798
     16 C11         1.3240    2.0084    0.0334 C.2       1 <0>        -0.1095
     17 C12         1.3825    3.5042   -0.0722 C.3       1 <0>        -0.0736
     18 C13         0.0484    4.1157    0.3614 C.3       1 <0>        -0.1154
     19 H2         -0.0749    3.9998    1.4382 H         1 <0>         0.0817
     20 C14         0.0218    5.5792    0.0032 C.2       1 <0>         0.4656
     21 O2         -0.8261    6.0024   -0.7464 O.co2     1 <0>        -0.6306
     22 Cl2        -2.4892    6.5123   -2.9674 Cl        1 <0>         0.0239
     23 Cl3        -4.9777    6.9318   -7.7432 Cl        1 <0>        -0.0606
     24 H3         -3.5819    4.4700   -8.0517 H         1 <0>         0.1480
     25 H4         -4.1005    7.5034   -5.0959 H         1 <0>         0.1487
     26 H5         -0.6578    3.4835   -4.4309 H         1 <0>         0.4357
     27 H6         -2.4786    4.3922   -2.3580 H         1 <0>         0.4226
     28 H7         -1.8086    1.3616   -0.4995 H         1 <0>         0.0652
     29 H8         -1.5295    1.9428    1.1569 H         1 <0>         0.0782
     30 H9          0.2980    0.2543    0.1860 H         1 <0>         0.0942
     31 H10         2.2568    1.4640    0.0354 H         1 <0>         0.0929
     32 H11         2.1784    3.8809    0.5701 H         1 <0>         0.0692
     33 H12         1.5903    3.7857   -1.1046 H         1 <0>         0.0847
     34 O3          0.9400    6.4128    0.5169 O.co2     1 <0>        -0.7658
@<TRIPOS>BOND
     1    1    6 ar
     2    1    2 ar
     3    1   24 1
     4    2    3 ar
     5    2   23 1
     6    3    4 ar
     7    3   25 1
     8    4    5 ar
     9    4   22 1
    10    5    6 ar
    11    5    8 1
    12    6    7 1
    13    8    9 1
    14    8   26 1
    15    9   10 am
    16    9   27 1
    17   10   11 2
    18   10   12 1
    19   12   13 1
    20   12   18 1
    21   12   14 1
    22   14   15 1
    23   14   28 1
    24   14   29 1
    25   15   16 2
    26   15   30 1
    27   16   17 1
    28   16   31 1
    29   17   18 1
    30   17   32 1
    31   17   33 1
    32   18   19 1
    33   18   20 1
    34   20   21 2
    35   20   34 1
@<TRIPOS>MOLECULE
ZINC28466119
   38    41     0     0     0
SMALL
USER_CHARGES
(5S)-5,7-diphenyl-5,8-dihydro-1H-pyrido[3,2-e]pyrimidine-2,4-dione
@<TRIPOS>ATOM
      1 C1         -6.6412    3.6010    4.0088 C.ar      1 <0>        -0.1437
      2 C2         -7.3044    3.0239    2.9421 C.ar      1 <0>        -0.1296
      3 C3         -6.7730    3.1108    1.6689 C.ar      1 <0>        -0.1140
      4 C4         -5.5785    3.7752    1.4624 C.ar      1 <0>        -0.0372
      5 C5         -4.9126    4.3478    2.5299 C.ar      1 <0>        -0.1003
      6 C6         -5.4460    4.2643    3.8025 C.ar      1 <0>        -0.1311
      7 C7         -4.9991    3.8699    0.0745 C.3       1 <0>         0.1220
      8 H1         -5.6560    3.3712   -0.6534 H         1 <0>         0.0527
      9 C8         -3.6633    3.1865    0.0472 C.2       1 <0>        -0.2831
     10 C9         -2.5248    3.8699    0.0451 C.2       1 <0>         0.1687
     11 N1         -2.5292    5.2650    0.0518 N.2       1 <0>        -0.6801
     12 C10        -3.6651    5.9482   -0.2994 C.2       1 <0>         0.4522
     13 C11        -4.8742    5.3171   -0.3095 C.2       1 <0>        -0.4554
     14 C12        -6.0182    6.0435   -0.6820 C.2       1 <0>         0.5558
     15 O1         -7.1100    5.5013   -0.7005 O.3       1 <0>        -0.5786
     16 N2         -5.9007    7.3428   -1.0184 N.am      1 <0>        -0.6860
     17 H2         -6.7911    7.9172   -1.3137 H         1 <0>         0.4352
     18 C13        -4.7004    7.9502   -0.9975 C.2       1 <0>         0.7114
     19 O2         -4.6176    9.1245   -1.3015 O.2       1 <0>        -0.5932
     20 N3         -3.5900    7.2765   -0.6446 N.am      1 <0>        -0.6455
     21 C14        -1.2348    3.1424    0.0293 C.ar      1 <0>        -0.0096
     22 C15        -1.2176    1.7481    0.0173 C.ar      1 <0>        -0.1177
     23 C16        -0.0126    1.0758    0.0080 C.ar      1 <0>        -0.1272
     24 C17         1.1767    1.7824    0.0004 C.ar      1 <0>        -0.1364
     25 C18         1.1660    3.1657    0.0070 C.ar      1 <0>        -0.1312
     26 C19        -0.0327    3.8491    0.0212 C.ar      1 <0>        -0.0909
     27 H3         -7.0566    3.5335    5.0034 H         1 <0>         0.1083
     28 H4         -8.2380    2.5054    3.1033 H         1 <0>         0.1097
     29 H5         -7.2912    2.6598    0.8355 H         1 <0>         0.1135
     30 H6         -3.9772    4.8631    2.3693 H         1 <0>         0.1172
     31 H7         -4.9276    4.7149    4.6360 H         1 <0>         0.1088
     32 H8         -3.6447    2.0868    0.0286 H         1 <0>         0.0934
     33 H9         -2.1455    1.1954    0.0191 H         1 <0>         0.1229
     34 H10         0.0021   -0.0041    0.0020 H         1 <0>         0.1150
     35 H11         2.1174    1.2519   -0.0111 H         1 <0>         0.1120
     36 H12         2.0977    3.7119    0.0007 H         1 <0>         0.1144
     37 H13        -0.0398    4.9290    0.0264 H         1 <0>         0.1326
     38 H14        -2.6192    7.7937   -0.6332 H         1 <0>         0.4452
@<TRIPOS>BOND
     1    1    6 ar
     2    1    2 ar
     3    1   27 1
     4    2    3 ar
     5    2   28 1
     6    3    4 ar
     7    3   29 1
     8    4    5 ar
     9    4    7 1
    10    5    6 ar
    11    5   30 1
    12    6   31 1
    13    7    8 1
    14    7   13 1
    15    7    9 1
    16    9   10 2
    17    9   32 1
    18   10   11 1
    19   10   21 1
    20   11   12 2
    21   12   20 1
    22   12   13 1
    23   13   14 2
    24   14   15 1
    25   14   16 1
    26   16   17 1
    27   16   18 am
    28   18   19 2
    29   18   20 am
    30   20   38 1
    31   21   26 ar
    32   21   22 ar
    33   22   23 ar
    34   22   33 1
    35   23   24 ar
    36   23   34 1
    37   24   25 ar
    38   24   35 1
    39   25   26 ar
    40   25   36 1
    41   26   37 1
@<TRIPOS>MOLECULE
ZINC40544718
   26    26     0     0     0
SMALL
USER_CHARGES

@<TRIPOS>ATOM
      1 C1          0.7828    1.3977   -1.1319 C.ar      1 <0>        -0.0955
      2 C2          1.1725    2.0876    0.0026 C.ar      1 <0>        -0.0125
      3 C3          1.5832    1.3966    1.1289 C.ar      1 <0>        -0.0953
      4 C4          1.6057    0.0145    1.1236 C.ar      1 <0>        -0.0100
      5 C5          1.2151   -0.6808   -0.0139 C.ar      1 <0>         0.1886
      6 C6          0.8028    0.0156   -1.1429 C.ar      1 <0>        -0.0078
      7 Cl1         0.3132   -0.8491   -2.5664 Cl        1 <0>        -0.0292
      8 N1          1.2373   -2.0818   -0.0224 N.am      1 <0>        -0.7067
      9 C7          0.1553   -2.7754    0.3834 C.2       1 <0>         0.7079
     10 O1         -0.8704   -2.1888    0.6704 O.2       1 <0>        -0.5707
     11 N2          0.2102   -4.1192    0.4711 N.am      1 <0>        -0.7356
     12 C8         -0.9659   -4.8731    0.9122 C.3       1 <0>         0.1591
     13 C9         -0.6388   -6.3677    0.9234 C.3       1 <0>        -0.1950
     14 C10        -1.8486   -7.1433    1.3771 C.2       1 <0>         0.4958
     15 O2         -2.8771   -6.5551    1.6649 O.co2     1 <0>        -0.6916
     16 O3         -1.7989   -8.3589    1.4565 O.co2     1 <0>        -0.7011
     17 Cl2         2.1222   -0.8515    2.5367 Cl        1 <0>        -0.0292
     18 Cl3         1.1466    3.8234    0.0126 Cl        1 <0>        -0.0449
     19 H1          0.4585    1.9396   -2.0080 H         1 <0>         0.1540
     20 H2          1.8867    1.9377    2.0129 H         1 <0>         0.1540
     21 H3          2.0314   -2.5524   -0.3204 H         1 <0>         0.4089
     22 H4          1.0285   -4.5871    0.2422 H         1 <0>         0.3925
     23 H5         -1.2458   -4.5549    1.9165 H         1 <0>         0.0687
     24 H6         -1.7940   -4.6875    0.2282 H         1 <0>         0.0687
     25 H7         -0.3589   -6.6859   -0.0808 H         1 <0>         0.0635
     26 H8          0.1893   -6.5533    1.6074 H         1 <0>         0.0635
@<TRIPOS>BOND
     1    1    6 ar
     2    1    2 ar
     3    1   19 1
     4    2    3 ar
     5    2   18 1
     6    3    4 ar
     7    3   20 1
     8    4    5 ar
     9    4   17 1
    10    5    6 ar
    11    5    8 1
    12    6    7 1
    13    8    9 am
    14    8   21 1
    15    9   10 2
    16    9   11 am
    17   11   12 1
    18   11   22 1
    19   12   13 1
    20   12   23 1
    21   12   24 1
    22   13   14 1
    23   13   25 1
    24   13   26 1
    25   14   15 2
    26   14   16 1
@<TRIPOS>MOLECULE
ZINC43489464
   30    31     0     0     0
SMALL
USER_CHARGES

@<TRIPOS>ATOM
      1 C1         -0.0167    1.3783    0.0096 C.ar      1 <0>        -0.0673
      2 C2          1.1690    2.0869    0.0021 C.ar      1 <0>        -0.1937
      3 C3          2.3815    1.4094   -0.0131 C.ar      1 <0>         0.2544
      4 C4          2.3977    0.0204   -0.0206 C.ar      1 <0>        -0.1642
      5 C5          1.2082   -0.6826   -0.0131 C.ar      1 <0>        -0.0348
      6 C6          0.0021   -0.0041    0.0020 C.ar      1 <0>        -0.1710
      7 Br1         1.2284   -2.5735   -0.0233 Br        1 <0>        -0.0681
      8 N1          3.5820    2.1234   -0.0212 N.pl3     1 <0>        -0.7066
      9 C7          4.8599    1.4073   -0.0372 C.3       1 <0>         0.1094
     10 H1          4.7597    0.4983   -0.6302 H         1 <0>         0.0865
     11 C8          5.9217    2.2882   -0.6436 C.ar      1 <0>        -0.0410
     12 C9          5.9567    3.6365   -0.3389 C.ar      1 <0>        -0.0972
     13 C10         6.9285    4.4467   -0.8936 C.ar      1 <0>        -0.1286
     14 C11         7.8706    3.9068   -1.7567 C.ar      1 <0>         0.0980
     15 C12         7.8342    2.5529   -2.0610 C.ar      1 <0>        -0.0553
     16 C13         6.8625    1.7456   -1.4990 C.ar      1 <0>        -0.0797
     17 Cl1         9.0112    1.8729   -3.1407 Cl        1 <0>        -0.0671
     18 O1          8.8274    4.7021   -2.3039 O.3       1 <0>        -0.4897
     19 C14         5.2514    1.0467    1.3727 C.2       1 <0>         0.4899
     20 O2          4.5297    1.3588    2.3045 O.co2     1 <0>        -0.6686
     21 O3          6.2897    0.4427    1.5816 O.co2     1 <0>        -0.6851
     22 H2         -0.9595    1.9047    0.0259 H         1 <0>         0.1235
     23 H3          1.1533    3.1667    0.0077 H         1 <0>         0.1205
     24 H4          3.3388   -0.5093   -0.0328 H         1 <0>         0.1284
     25 H5         -0.9265   -0.5556    0.0082 H         1 <0>         0.1213
     26 H6          3.5695    3.0933   -0.0162 H         1 <0>         0.3948
     27 H7          5.2231    4.0568    0.3332 H         1 <0>         0.1305
     28 H8          6.9545    5.4998   -0.6556 H         1 <0>         0.1356
     29 H9          6.8358    0.6914   -1.7319 H         1 <0>         0.1376
     30 H10         9.6359    4.7643   -1.7770 H         1 <0>         0.3878
@<TRIPOS>BOND
     1    1    6 ar
     2    1    2 ar
     3    1   22 1
     4    2    3 ar
     5    2   23 1
     6    3    4 ar
     7    3    8 1
     8    4    5 ar
     9    4   24 1
    10    5    6 ar
    11    5    7 1
    12    6   25 1
    13    8    9 1
    14    8   26 1
    15    9   10 1
    16    9   11 1
    17    9   19 1
    18   11   16 ar
    19   11   12 ar
    20   12   13 ar
    21   12   27 1
    22   13   14 ar
    23   13   28 1
    24   14   15 ar
    25   14   18 1
    26   15   16 ar
    27   15   17 1
    28   16   29 1
    29   18   30 1
    30   19   20 2
    31   19   21 1
@<TRIPOS>MOLECULE
ZINC55174685
   47    49     0     0     0
SMALL
USER_CHARGES

@<TRIPOS>ATOM
      1 C1          0.6485    0.8891    1.3047 C.3       1 <0>        -0.1364
      2 C2          0.3630   -0.5054    0.8098 C.2       1 <0>         0.3308
      3 O1          1.3553   -1.4162    0.7510 O.3       1 <0>        -0.6748
      4 C3         -0.8818   -0.8414    0.4269 C.2       1 <0>        -0.4621
      5 C4         -1.1830   -2.2065   -0.1615 C.3       1 <0>         0.1003
      6 H1         -0.8889   -2.9607    0.5683 H         1 <0>         0.0410
      7 C5         -2.6216   -2.4723   -0.5569 C.2       1 <0>        -0.2552
      8 C6         -3.5382   -1.4844   -0.3619 C.2       1 <0>         0.4813
      9 N1         -3.2028   -0.2691    0.1751 N.am      1 <0>        -0.5102
     10 C7         -1.9651    0.0662    0.5634 C.2       1 <0>         0.5694
     11 O2         -1.7648    1.1699    1.0361 O.2       1 <0>        -0.5688
     12 C8         -4.2196    0.6804    0.3344 C.ar      1 <0>         0.1314
     13 C9         -5.2321    0.4669    1.2606 C.ar      1 <0>        -0.1224
     14 C10        -6.2333    1.4055    1.4156 C.ar      1 <0>        -0.1139
     15 C11        -6.2283    2.5569    0.6498 C.ar      1 <0>        -0.1226
     16 C12        -5.2218    2.7723   -0.2737 C.ar      1 <0>        -0.1123
     17 C13        -4.2145    1.8402   -0.4294 C.ar      1 <0>        -0.0929
     18 N2         -4.8456   -1.7141   -0.7166 N.pl3     1 <0>        -0.8696
     19 C14        -3.0071   -3.7305   -1.1217 C.1       1 <0>         0.3084
     20 N3         -3.3130   -4.7286   -1.5697 N.1       1 <0>        -0.4950
     21 C15        -0.3096   -2.3896   -1.4043 C.3       1 <0>        -0.0796
     22 C16        -0.7708   -1.4246   -2.4984 C.3       1 <0>        -0.0963
     23 C17         0.1027   -1.6077   -3.7412 C.3       1 <0>        -0.1183
     24 C18        -0.0223   -3.0471   -4.2448 C.3       1 <0>        -0.1126
     25 C19         0.4389   -4.0120   -3.1507 C.3       1 <0>        -0.1140
     26 C20        -0.4345   -3.8289   -1.9079 C.3       1 <0>        -0.1315
     27 H2          1.7032    0.9727    1.5670 H         1 <0>         0.0378
     28 H3          0.4109    1.6085    0.5210 H         1 <0>         0.0638
     29 H4          0.0380    1.0947    2.1839 H         1 <0>         0.0709
     30 H5         -5.2368   -0.4323    1.8587 H         1 <0>         0.1251
     31 H6         -7.0212    1.2399    2.1355 H         1 <0>         0.1242
     32 H7         -7.0124    3.2894    0.7729 H         1 <0>         0.1217
     33 H8         -5.2208    3.6723   -0.8705 H         1 <0>         0.1246
     34 H9         -3.4261    2.0111   -1.1474 H         1 <0>         0.1257
     35 H10        -5.1225   -2.5989   -1.0019 H         1 <0>         0.4096
     36 H11        -5.4917   -0.9915   -0.6818 H         1 <0>         0.3968
     37 H12         0.7301   -2.1821   -1.1515 H         1 <0>         0.0928
     38 H13        -1.8105   -1.6321   -2.7513 H         1 <0>         0.0473
     39 H14        -0.6818   -0.3992   -2.1397 H         1 <0>         0.0571
     40 H15        -0.2259   -0.9203   -4.5207 H         1 <0>         0.0474
     41 H16         1.1424   -1.4002   -3.4884 H         1 <0>         0.0579
     42 H17        -1.0620   -3.2546   -4.4977 H         1 <0>         0.0527
     43 H18         0.6000   -3.1775   -5.1302 H         1 <0>         0.0487
     44 H19         0.3499   -5.0374   -3.5094 H         1 <0>         0.0468
     45 H20         1.4787   -3.8045   -2.8978 H         1 <0>         0.0576
     46 H21        -0.1060   -4.5164   -1.1284 H         1 <0>         0.0492
     47 H22        -1.4743   -4.0364   -2.1608 H         1 <0>         0.0684
@<TRIPOS>BOND
     1    1    2 1
     2    1   27 1
     3    1   28 1
     4    1   29 1
     5    2    3 1
     6    2    4 2
     7    4   10 1
     8    4    5 1
     9    5    6 1
    10    5    7 1
    11    5   21 1
    12    7    8 2
    13    7   19 1
    14    8    9 1
    15    8   18 1
    16    9   10 am
    17    9   12 1
    18   10   11 2
    19   12   17 ar
    20   12   13 ar
    21   13   14 ar
    22   13   30 1
    23   14   15 ar
    24   14   31 1
    25   15   16 ar
    26   15   32 1
    27   16   17 ar
    28   16   33 1
    29   17   34 1
    30   18   35 1
    31   18   36 1
    32   19   20 3
    33   21   26 1
    34   21   22 1
    35   21   37 1
    36   22   23 1
    37   22   38 1
    38   22   39 1
    39   23   24 1
    40   23   40 1
    41   23   41 1
    42   24   25 1
    43   24   42 1
    44   24   43 1
    45   25   26 1
    46   25   44 1
    47   25   45 1
    48   26   46 1
    49   26   47 1
@<TRIPOS>MOLECULE
ZINC65215128
   29    31     0     0     0
SMALL
USER_CHARGES

@<TRIPOS>ATOM
      1 C1          0.0208    1.3503   -0.6235 C.2       1 <0>        -0.1971
      2 C2          1.0655    1.9791   -1.2013 C.2       1 <0>        -0.2292
      3 S1          2.0929    0.7377   -1.6778 S.3       1 <0>         0.2379
      4 C3          1.1388   -0.6447   -1.1103 C.2       1 <0>        -0.2543
      5 C4          1.3117   -2.0233   -1.1328 C.2       1 <0>         0.4011
      6 C5          0.3114   -2.8370   -0.5692 C.2       1 <0>        -0.4677
      7 C6         -0.8272   -2.2145   -0.0040 C.2       1 <0>         0.5682
      8 O1         -1.7023   -2.9055    0.4886 O.2       1 <0>        -0.6034
      9 N1         -0.9631   -0.8806    0.0014 N.am      1 <0>        -0.6284
     10 C7          0.0062   -0.0430   -0.5471 C.2       1 <0>         0.1579
     11 C8          0.4454   -4.2962   -0.5680 C.2       1 <0>         0.5960
     12 O2          1.3742   -4.8226   -1.1526 O.2       1 <0>        -0.5264
     13 N2         -0.4599   -5.0555    0.0805 N.am      1 <0>        -0.6779
     14 C9         -0.2728   -6.4381    0.1762 C.ar      1 <0>         0.2096
     15 C10         1.0101   -6.9615    0.2710 C.ar      1 <0>        -0.1194
     16 C11         1.1922   -8.3285    0.3659 C.ar      1 <0>         0.0001
     17 C12         0.0977   -9.1752    0.3666 C.ar      1 <0>        -0.1434
     18 C13        -1.1817   -8.6563    0.2723 C.ar      1 <0>        -0.0003
     19 C14        -1.3697   -7.2897    0.1824 C.ar      1 <0>        -0.1526
     20 Cl1        -2.5521   -9.7220    0.2735 Cl        1 <0>        -0.0700
     21 Cl2         2.7955   -8.9837    0.4839 Cl        1 <0>        -0.0656
     22 O3          2.4173   -2.5713   -1.6850 O.3       1 <0>        -0.6047
     23 H1         -0.7994    1.9238   -0.2174 H         1 <0>         0.1304
     24 H2          1.2091    3.0418   -1.3291 H         1 <0>         0.1871
     25 H3         -1.2412   -4.6429    0.4809 H         1 <0>         0.4231
     26 H4          1.8647   -6.3012    0.2701 H         1 <0>         0.1544
     27 H5          0.2422  -10.2429    0.4405 H         1 <0>         0.1376
     28 H6         -2.3686   -6.8850    0.1129 H         1 <0>         0.1388
     29 H7         -1.7569   -0.4883    0.3976 H         1 <0>         0.3982
@<TRIPOS>BOND
     1    1   10 1
     2    1    2 2
     3    1   23 1
     4    2    3 1
     5    2   24 1
     6    3    4 1
     7    4   10 2
     8    4    5 1
     9    5    6 2
    10    5   22 1
    11    6    7 1
    12    6   11 1
    13    7    8 2
    14    7    9 am
    15    9   10 1
    16    9   29 1
    17   11   12 2
    18   11   13 am
    19   13   14 1
    20   13   25 1
    21   14   19 ar
    22   14   15 ar
    23   15   16 ar
    24   15   26 1
    25   16   17 ar
    26   16   21 1
    27   17   18 ar
    28   17   27 1
    29   18   19 ar
    30   18   20 1
    31   19   28 1
@<TRIPOS>MOLECULE
ZINC20027809
   36    38     0     0     0
SMALL
USER_CHARGES
2-hydroxy-4-(indane-5-carbonylamino)benzoic acid
@<TRIPOS>ATOM
      1 C1          1.1800    2.0661    0.0183 C.ar      1 <0>        -0.0860
      2 C2          0.0094    1.3385    0.0293 C.ar      1 <0>        -0.1148
      3 C3          0.0351   -0.0350   -0.1562 C.ar      1 <0>        -0.0770
      4 C4          1.2406   -0.6860   -0.3540 C.ar      1 <0>        -0.1072
      5 C5          2.4202    0.0336   -0.3680 C.ar      1 <0>        -0.0474
      6 C6          2.3986    1.4160   -0.1824 C.ar      1 <0>        -0.1275
      7 C7          3.6592    2.1876   -0.1969 C.2       1 <0>         0.5557
      8 O1          4.7187    1.6177   -0.3708 O.2       1 <0>        -0.5137
      9 N1          3.6339    3.5231   -0.0172 N.am      1 <0>        -0.6750
     10 C8          4.8274    4.2357    0.0795 C.ar      1 <0>         0.1784
     11 C9          5.9397    3.6487    0.6793 C.ar      1 <0>        -0.1795
     12 C10         7.1153    4.3357    0.7741 C.ar      1 <0>        -0.0206
     13 C11         7.2072    5.6410    0.2785 C.ar      1 <0>        -0.1690
     14 C12         6.0875    6.2388   -0.3215 C.ar      1 <0>         0.2002
     15 C13         4.9021    5.5304   -0.4173 C.ar      1 <0>        -0.2617
     16 O2          6.1671    7.5037   -0.8052 O.3       1 <0>        -0.4601
     17 C14         8.4727    6.3841    0.3855 C.2       1 <0>         0.4919
     18 O3          8.5501    7.5178   -0.0461 O.co2     1 <0>        -0.6170
     19 O4          9.5460    5.8078    0.9620 O.co2     1 <0>        -0.7654
     20 C15         0.9976   -2.1701   -0.5286 C.3       1 <0>        -0.0877
     21 C16        -0.5057   -2.2979   -0.8534 C.3       1 <0>        -0.1167
     22 C17        -1.0979   -1.0393   -0.1848 C.3       1 <0>        -0.0818
     23 H1          1.1542    3.1361    0.1631 H         1 <0>         0.1288
     24 H2         -0.9342    1.8423    0.1788 H         1 <0>         0.1269
     25 H3          3.3603   -0.4751   -0.5225 H         1 <0>         0.1351
     26 H4          2.6711    4.0505    0.0531 H         1 <0>         0.4251
     27 H5          5.8725    2.6432    1.0675 H         1 <0>         0.1266
     28 H6          7.9746    3.8727    1.2363 H         1 <0>         0.1384
     29 H7          4.0366    5.9840   -0.8773 H         1 <0>         0.1223
     30 H8          5.2881    7.9693   -1.2748 H         1 <0>         0.4035
     31 H9          1.6226   -2.5498   -1.3503 H         1 <0>         0.0778
     32 H10         1.2564   -2.6961    0.4022 H         1 <0>         0.0822
     33 H11        -0.6455   -2.3084   -1.9444 H         1 <0>         0.0742
     34 H12        -0.8952   -3.2331   -0.4249 H         1 <0>         0.0784
     35 H13        -1.4306   -1.2460    0.8431 H         1 <0>         0.0845
     36 H14        -1.9368   -0.6292   -0.7663 H         1 <0>         0.0781
@<TRIPOS>BOND
     1    1    6 ar
     2    1    2 ar
     3    1   23 1
     4    2    3 ar
     5    2   24 1
     6    3   22 1
     7    3    4 ar
     8    4    5 ar
     9    4   20 1
    10    5    6 ar
    11    5   25 1
    12    6    7 1
    13    7    8 2
    14    7    9 am
    15    9   10 1
    16    9   26 1
    17   10   15 ar
    18   10   11 ar
    19   11   12 ar
    20   11   27 1
    21   12   13 ar
    22   12   28 1
    23   13   14 ar
    24   13   17 1
    25   14   15 ar
    26   14   16 1
    27   15   29 1
    28   16   30 1
    29   17   18 2
    30   17   19 1
    31   20   21 1
    32   20   31 1
    33   20   32 1
    34   21   22 1
    35   21   33 1
    36   21   34 1
    37   22   35 1
    38   22   36 1
@<TRIPOS>MOLECULE
ZINC36178478
   40    42     0     0     0
SMALL
USER_CHARGES

@<TRIPOS>ATOM
      1 C1         -0.0168    1.3898    0.0097 C.ar      1 <0>        -0.0746
      2 C2          1.1703    2.0933    0.0021 C.ar      1 <0>        -0.1278
      3 C3          2.3775    1.4180   -0.0135 C.ar      1 <0>        -0.0704
      4 C4          2.4024    0.0349   -0.0216 C.ar      1 <0>        -0.1192
      5 C5          1.2216   -0.6792   -0.0142 C.ar      1 <0>        -0.0886
      6 C6          0.0021   -0.0041    0.0020 C.ar      1 <0>        -0.0445
      7 C7         -1.2702   -0.7657    0.0106 C.ar      1 <0>         0.2279
      8 C8         -1.2600   -2.1661    0.0088 C.ar      1 <0>        -0.2373
      9 C9         -2.4813   -2.8353    0.0170 C.ar      1 <0>         0.1688
     10 N1         -3.6084   -2.1249    0.0262 N.ar      1 <0>        -0.5295
     11 C10        -3.5777   -0.8028    0.0276 C.ar      1 <0>         0.5458
     12 N2         -2.4368   -0.1294    0.0256 N.ar      1 <0>        -0.5753
     13 N3         -4.7720   -0.1024    0.0369 N.pl3     1 <0>        -0.8313
     14 C11        -2.5266   -4.3176    0.0150 C.2       1 <0>         0.5343
     15 O1         -1.4875   -4.9606    0.0061 O.co2     1 <0>        -0.6713
     16 O2         -3.6030   -4.8960    0.0223 O.co2     1 <0>        -0.6524
     17 C12         3.6705    2.1920   -0.0222 C.3       1 <0>        -0.0454
     18 C13         4.4661    1.8419   -1.2813 C.3       1 <0>        -0.1120
     19 C14         5.7789    2.6277   -1.2901 C.3       1 <0>        -0.1192
     20 C15         6.5992    2.2641   -0.0509 C.3       1 <0>        -0.1208
     21 C16         5.8037    2.6143    1.2082 C.3       1 <0>        -0.1192
     22 C17         4.4909    1.8285    1.2170 C.3       1 <0>        -0.1120
     23 H1         -0.9587    1.9180    0.0260 H         1 <0>         0.1327
     24 H2          1.1569    3.1732    0.0081 H         1 <0>         0.1206
     25 H3          3.3479   -0.4871   -0.0342 H         1 <0>         0.1238
     26 H4          1.2422   -1.7590   -0.0212 H         1 <0>         0.1337
     27 H5         -0.3288   -2.7131    0.0008 H         1 <0>         0.1487
     28 H6         -5.6153   -0.5817    0.0422 H         1 <0>         0.4115
     29 H7         -4.7654    0.8675    0.0380 H         1 <0>         0.4058
     30 H8          3.4545    3.2604   -0.0143 H         1 <0>         0.0756
     31 H9          4.6822    0.7735   -1.2892 H         1 <0>         0.0659
     32 H10         3.8817    2.1009   -2.1641 H         1 <0>         0.0633
     33 H11         6.3456    2.3782   -2.1871 H         1 <0>         0.0610
     34 H12         5.5628    3.6961   -1.2822 H         1 <0>         0.0603
     35 H13         6.8153    1.1958   -0.0587 H         1 <0>         0.0620
     36 H14         7.5345    2.8240   -0.0572 H         1 <0>         0.0585
     37 H15         6.3881    2.3553    2.0911 H         1 <0>         0.0610
     38 H16         5.5876    3.6826    1.2161 H         1 <0>         0.0603
     39 H17         3.9241    2.0779    2.1141 H         1 <0>         0.0633
     40 H18         4.7070    0.7601    1.2092 H         1 <0>         0.0659
@<TRIPOS>BOND
     1    1    6 ar
     2    1    2 ar
     3    1   23 1
     4    2    3 ar
     5    2   24 1
     6    3    4 ar
     7    3   17 1
     8    4    5 ar
     9    4   25 1
    10    5    6 ar
    11    5   26 1
    12    6    7 1
    13    7   12 ar
    14    7    8 ar
    15    8    9 ar
    16    8   27 1
    17    9   10 ar
    18    9   14 1
    19   10   11 ar
    20   11   12 ar
    21   11   13 1
    22   13   28 1
    23   13   29 1
    24   14   15 2
    25   14   16 1
    26   17   22 1
    27   17   18 1
    28   17   30 1
    29   18   19 1
    30   18   31 1
    31   18   32 1
    32   19   20 1
    33   19   33 1
    34   19   34 1
    35   20   21 1
    36   20   35 1
    37   20   36 1
    38   21   22 1
    39   21   37 1
    40   21   38 1
    41   22   39 1
    42   22   40 1
@<TRIPOS>MOLECULE
ZINC40519268
   42    43     0     0     0
SMALL
USER_CHARGES

@<TRIPOS>ATOM
      1 C1         -0.0222    1.5360    0.0405 C.3       1 <0>        -0.1490
      2 C2         -0.0025    0.0063    0.0218 C.3       1 <0>        -0.0870
      3 H1         -1.0253   -0.3705    0.0312 H         1 <0>         0.0664
      4 C3          0.7082   -0.4791   -1.2432 C.3       1 <0>        -0.1140
      5 C4          0.7280   -2.0088   -1.2620 C.3       1 <0>        -0.1169
      6 C5          1.4727   -2.5244   -0.0289 C.3       1 <0>        -0.1333
      7 C6          0.7621   -2.0391    1.2361 C.3       1 <0>         0.1692
      8 H2          1.2926   -2.4064    2.1145 H         1 <0>         0.0913
      9 C7          0.7423   -0.5093    1.2548 C.3       1 <0>        -0.0926
     10 H3          1.7651   -0.1326    1.2455 H         1 <0>         0.0846
     11 C8          0.0316   -0.0239    2.5198 C.3       1 <0>        -0.1495
     12 N1         -0.6126   -2.5454    1.2487 N.am      1 <0>        -0.7363
     13 C9         -0.8728   -3.7768    1.7307 C.2       1 <0>         0.6963
     14 O1          0.0334   -4.4675    2.1551 O.2       1 <0>        -0.5571
     15 N2         -2.1374   -4.2427    1.7423 N.am      1 <0>        -0.6846
     16 C10        -2.3958   -5.5559    2.1524 C.ar      1 <0>         0.1326
     17 C11        -3.4081   -6.2878    1.5425 C.ar      1 <0>        -0.1550
     18 C12        -3.6679   -7.5851    1.9432 C.ar      1 <0>        -0.1245
     19 C13        -2.9245   -8.1628    2.9519 C.ar      1 <0>        -0.0996
     20 C14        -1.9048   -7.4361    3.5717 C.ar      1 <0>        -0.1188
     21 C15        -1.6389   -6.1278    3.1622 C.ar      1 <0>        -0.0797
     22 C16        -1.1083   -8.0506    4.6511 C.2       1 <0>         0.5202
     23 O2         -1.3401   -9.1981    5.0048 O.co2     1 <0>        -0.6898
     24 O3         -0.2163   -7.4125    5.1920 O.co2     1 <0>        -0.6820
     25 H4          1.0005    1.9128    0.0312 H         1 <0>         0.0545
     26 H5         -0.5528    1.9033   -0.8379 H         1 <0>         0.0524
     27 H6         -0.5286    1.8818    0.9418 H         1 <0>         0.0583
     28 H7          0.1777   -0.1118   -2.1217 H         1 <0>         0.0598
     29 H8          1.7310   -0.1024   -1.2526 H         1 <0>         0.0624
     30 H9         -0.2948   -2.3856   -1.2526 H         1 <0>         0.0607
     31 H10         1.2343   -2.3546   -2.1632 H         1 <0>         0.0596
     32 H11         1.4868   -3.6143   -0.0423 H         1 <0>         0.0714
     33 H12         2.4955   -2.1477   -0.0383 H         1 <0>         0.0696
     34 H13        -0.9912   -0.4007    2.5292 H         1 <0>         0.0550
     35 H14         0.5622   -0.3912    3.3983 H         1 <0>         0.0578
     36 H15         0.0175    1.0659    2.5332 H         1 <0>         0.0580
     37 H16        -1.3355   -1.9944    0.9101 H         1 <0>         0.3907
     38 H17        -2.8685   -3.6679    1.4665 H         1 <0>         0.3983
     39 H18        -3.9940   -5.8411    0.7528 H         1 <0>         0.1126
     40 H19        -4.4558   -8.1482    1.4652 H         1 <0>         0.1168
     41 H20        -3.1312   -9.1763    3.2626 H         1 <0>         0.1260
     42 H21        -0.8490   -5.5623    3.6339 H         1 <0>         0.1453
@<TRIPOS>BOND
     1    1    2 1
     2    1   25 1
     3    1   26 1
     4    1   27 1
     5    2    3 1
     6    2    9 1
     7    2    4 1
     8    4    5 1
     9    4   28 1
    10    4   29 1
    11    5    6 1
    12    5   30 1
    13    5   31 1
    14    6    7 1
    15    6   32 1
    16    6   33 1
    17    7    8 1
    18    7    9 1
    19    7   12 1
    20    9   10 1
    21    9   11 1
    22   11   34 1
    23   11   35 1
    24   11   36 1
    25   12   13 am
    26   12   37 1
    27   13   14 2
    28   13   15 am
    29   15   16 1
    30   15   38 1
    31   16   21 ar
    32   16   17 ar
    33   17   18 ar
    34   17   39 1
    35   18   19 ar
    36   18   40 1
    37   19   20 ar
    38   19   41 1
    39   20   21 ar
    40   20   22 1
    41   21   42 1
    42   22   23 2
    43   22   24 1
@<TRIPOS>MOLECULE
ZINC44750088
   33    34     0     0     0
SMALL
USER_CHARGES

@<TRIPOS>ATOM
      1 C1          0.3509   -4.3016    2.3939 C.3       1 <0>        -0.0987
      2 C2         -0.2712   -3.4713    1.3009 C.ar      1 <0>        -0.0506
      3 C3          0.1027   -3.6635   -0.0098 C.ar      1 <0>        -0.1221
      4 C4         -0.4738   -2.8949   -1.0170 C.ar      1 <0>         0.1280
      5 C5         -1.4282   -1.9316   -0.7026 C.ar      1 <0>        -0.1526
      6 C6         -1.8042   -1.7346    0.5955 C.ar      1 <0>        -0.0800
      7 C7         -1.2350   -2.5065    1.6145 C.ar      1 <0>        -0.1232
      8 C8         -1.6445   -2.3000    3.0133 C.2       1 <0>         0.5245
      9 O1         -2.0146   -3.2503    3.6890 O.co2     1 <0>        -0.6818
     10 O2         -1.6148   -1.1780    3.5001 O.co2     1 <0>        -0.6890
     11 N1         -0.0943   -3.0899   -2.3431 N.am      1 <0>        -0.6698
     12 C9          0.1981   -4.3291   -2.7851 C.2       1 <0>         0.7025
     13 O3          0.2167   -5.2633   -2.0072 O.2       1 <0>        -0.5469
     14 N2          0.4698   -4.5327   -4.0894 N.am      1 <0>        -0.6793
     15 C10         0.6813   -5.8319   -4.5658 C.ar      1 <0>         0.1864
     16 C11         0.2100   -6.9221   -3.8465 C.ar      1 <0>        -0.1288
     17 C12         0.4202   -8.2028   -4.3191 C.ar      1 <0>        -0.0893
     18 C13         1.0997   -8.4007   -5.5072 C.ar      1 <0>        -0.1349
     19 C14         1.5706   -7.3179   -6.2265 C.ar      1 <0>        -0.0885
     20 C15         1.3583   -6.0332   -5.7624 C.ar      1 <0>        -0.0781
     21 Cl1         1.9434   -4.6736   -6.6694 Cl        1 <0>        -0.0716
     22 H1         -0.2796   -5.1675    2.5959 H         1 <0>         0.0725
     23 H2          1.3386   -4.6371    2.0778 H         1 <0>         0.0500
     24 H3          0.4436   -3.7006    3.2986 H         1 <0>         0.0698
     25 H4          0.8432   -4.4099   -0.2565 H         1 <0>         0.1333
     26 H5         -1.8726   -1.3378   -1.4876 H         1 <0>         0.1160
     27 H6         -2.5448   -0.9859    0.8353 H         1 <0>         0.1228
     28 H7         -0.0405   -2.3338   -2.9484 H         1 <0>         0.4043
     29 H8          0.5188   -3.7789   -4.6980 H         1 <0>         0.4088
     30 H9         -0.3201   -6.7687   -2.9182 H         1 <0>         0.1682
     31 H10         0.0537   -9.0509   -3.7598 H         1 <0>         0.1326
     32 H11         1.2631   -9.4033   -5.8739 H         1 <0>         0.1309
     33 H12         2.1008   -7.4757   -7.1540 H         1 <0>         0.1349
@<TRIPOS>BOND
     1    1    2 1
     2    1   22 1
     3    1   23 1
     4    1   24 1
     5    2    7 ar
     6    2    3 ar
     7    3    4 ar
     8    3   25 1
     9    4    5 ar
    10    4   11 1
    11    5    6 ar
    12    5   26 1
    13    6    7 ar
    14    6   27 1
    15    7    8 1
    16    8    9 2
    17    8   10 1
    18   11   12 am
    19   11   28 1
    20   12   13 2
    21   12   14 am
    22   14   15 1
    23   14   29 1
    24   15   20 ar
    25   15   16 ar
    26   16   17 ar
    27   16   30 1
    28   17   18 ar
    29   17   31 1
    30   18   19 ar
    31   18   32 1
    32   19   20 ar
    33   19   33 1
    34   20   21 1
@<TRIPOS>MOLECULE
ZINC14183260
   37    39     0     0     0
SMALL
USER_CHARGES

@<TRIPOS>ATOM
      1 C1          0.1072    1.5732   -0.1189 C.ar      1 <0>        -0.1059
      2 C2          0.0680    0.2328    0.2166 C.ar      1 <0>        -0.1095
      3 C3          1.2353   -0.5072    0.2444 C.ar      1 <0>        -0.1174
      4 C4          2.4417    0.0932   -0.0638 C.ar      1 <0>        -0.0814
      5 C5          2.4808    1.4334   -0.4001 C.ar      1 <0>        -0.0903
      6 C6          1.3137    2.1737   -0.4265 C.ar      1 <0>        -0.1105
      7 C7          3.7144   -0.7133   -0.0325 C.3       1 <0>        -0.0539
      8 H1          4.5713   -0.0420   -0.0879 H         1 <0>         0.1434
      9 C8          3.7395   -1.6578   -1.2066 C.2       1 <0>         0.5307
     10 O1          4.7234   -1.7212   -1.9129 O.2       1 <0>        -0.4984
     11 N1          2.6686   -2.4320   -1.4716 N.am      1 <0>        -0.8504
     12 S1          3.7899   -1.6643    1.5103 S.3       1 <0>         0.0466
     13 C9          5.3784   -2.4254    1.4646 C.2       1 <0>         0.2454
     14 N2          5.8924   -3.2460    2.4083 N.pl3     1 <0>        -0.4581
     15 H2          5.4612   -3.5256    3.2310 H         1 <0>         0.4461
     16 N3          7.1722   -3.6150    1.9639 N.2       1 <0>        -0.2925
     17 C10         7.3628   -3.0158    0.8061 C.2       1 <0>         0.2698
     18 N4          6.2671   -2.2985    0.5045 N.2       1 <0>        -0.5020
     19 C11         8.5747   -3.1199   -0.0240 C.2       1 <0>        -0.0664
     20 C12         9.6087   -3.8794    0.3861 C.2       1 <0>        -0.0211
     21 C13        10.8147   -3.9830   -0.4399 C.2       1 <0>        -0.1332
     22 C14        11.9732   -4.7053   -0.2071 C.2       1 <0>        -0.1359
     23 C15        12.9803   -4.6437   -1.1418 C.2       1 <0>        -0.1593
     24 C16        12.8094   -3.8832   -2.2547 C.2       1 <0>        -0.1719
     25 S2         11.1710   -3.2172   -2.0129 S.3       1 <0>         0.0691
     26 H3         -0.8054    2.1502   -0.1449 H         1 <0>         0.1290
     27 H4         -0.8746   -0.2363    0.4574 H         1 <0>         0.1312
     28 H5          1.2047   -1.5543    0.5072 H         1 <0>         0.1285
     29 H6          3.4234    1.9026   -0.6405 H         1 <0>         0.1311
     30 H7          1.3442    3.2209   -0.6889 H         1 <0>         0.1311
     31 H8          1.8540   -2.3262   -0.9557 H         1 <0>         0.3996
     32 H9          2.7125   -3.0951   -2.1783 H         1 <0>         0.4066
     33 H10         8.6345   -2.5872   -0.9615 H         1 <0>         0.1424
     34 H11         9.5489   -4.4121    1.3237 H         1 <0>         0.1448
     35 H12        12.0832   -5.3018    0.6865 H         1 <0>         0.1380
     36 H13        13.8975   -5.1939   -0.9926 H         1 <0>         0.1368
     37 H14        13.4900   -3.7253   -3.0782 H         1 <0>         0.1879
@<TRIPOS>BOND
     1    1    6 ar
     2    1    2 ar
     3    1   26 1
     4    2    3 ar
     5    2   27 1
     6    3    4 ar
     7    3   28 1
     8    4    5 ar
     9    4    7 1
    10    5    6 ar
    11    5   29 1
    12    6   30 1
    13    7    8 1
    14    7    9 1
    15    7   12 1
    16    9   10 2
    17    9   11 am
    18   11   31 1
    19   11   32 1
    20   12   13 1
    21   13   18 2
    22   13   14 1
    23   14   15 1
    24   14   16 1
    25   16   17 2
    26   17   18 1
    27   17   19 1
    28   19   20 2
    29   19   33 1
    30   20   21 1
    31   20   34 1
    32   21   25 1
    33   21   22 2
    34   22   23 1
    35   22   35 1
    36   23   24 2
    37   23   36 1
    38   24   25 1
    39   24   37 1
@<TRIPOS>MOLECULE
ZINC36970987
   34    35     0     0     0
SMALL
USER_CHARGES

@<TRIPOS>ATOM
      1 C1         -0.0140    1.4886    0.0064 C.3       1 <0>        -0.1395
      2 C2         -0.0224   -0.0184    0.0054 C.2       1 <0>         0.0930
      3 C3         -0.1446   -0.7252   -1.1906 C.2       1 <0>        -0.2458
      4 C4         -0.1517   -2.0828   -1.1823 C.2       1 <0>         0.1894
      5 N1         -0.0413   -2.7787   -0.0257 N.am      1 <0>        -0.6035
      6 H1         -0.0490   -3.7483   -0.0495 H         1 <0>         0.4157
      7 C5          0.0796   -2.1460    1.1568 C.2       1 <0>         0.5253
      8 O1          0.1783   -2.7896    2.1872 O.2       1 <0>        -0.5045
      9 C6          0.0975   -0.7276    1.1990 C.2       1 <0>        -0.2805
     10 C7          0.2349   -0.0189    2.4799 C.2       1 <0>         0.5674
     11 O2          0.1483    1.1940    2.5163 O.2       1 <0>        -0.5487
     12 N2          0.4567   -0.7129    3.6137 N.am      1 <0>        -0.6255
     13 C8          0.4664   -0.0570    4.8398 C.ar      1 <0>         0.1798
     14 C9         -0.2335    1.1318    5.0013 C.ar      1 <0>        -0.1563
     15 C10        -0.2220    1.7812    6.2187 C.ar      1 <0>        -0.1088
     16 C11         0.4856    1.2556    7.2887 C.ar      1 <0>        -0.1654
     17 C12         1.1855    0.0779    7.1491 C.ar      1 <0>        -0.0664
     18 C13         1.1794   -0.5960    5.9233 C.ar      1 <0>        -0.1722
     19 C14         1.9203   -1.8576    5.7681 C.2       1 <0>         0.5223
     20 O3          2.4600   -2.3732    6.7375 O.co2     1 <0>        -0.6857
     21 O4          1.9966   -2.3910    4.6698 O.co2     1 <0>        -0.6747
     22 C15        -0.2856   -2.8295   -2.4845 C.3       1 <0>        -0.1288
     23 H2          1.0157    1.8462    0.0031 H         1 <0>         0.0852
     24 H3         -0.5288    1.8554   -0.8816 H         1 <0>         0.0631
     25 H4         -0.5227    1.8542    0.8983 H         1 <0>         0.1160
     26 H5         -0.2340   -0.1915   -2.1253 H         1 <0>         0.1503
     27 H6          0.6095   -1.6700    3.5745 H         1 <0>         0.4417
     28 H7         -0.7872    1.5485    4.1729 H         1 <0>         0.1383
     29 H8         -0.7677    2.7055    6.3387 H         1 <0>         0.1130
     30 H9          0.4882    1.7727    8.2368 H         1 <0>         0.1119
     31 H10         1.7353   -0.3268    7.9859 H         1 <0>         0.1266
     32 H11         0.7047   -3.0155   -2.9001 H         1 <0>         0.0931
     33 H12        -0.7901   -3.7795   -2.3083 H         1 <0>         0.0795
     34 H13        -0.8683   -2.2334   -3.1868 H         1 <0>         0.0947
@<TRIPOS>BOND
     1    1    2 1
     2    1   23 1
     3    1   24 1
     4    1   25 1
     5    2    9 2
     6    2    3 1
     7    3    4 2
     8    3   26 1
     9    4    5 1
    10    4   22 1
    11    5    6 1
    12    5    7 am
    13    7    8 2
    14    7    9 1
    15    9   10 1
    16   10   11 2
    17   10   12 am
    18   12   13 1
    19   12   27 1
    20   13   18 ar
    21   13   14 ar
    22   14   15 ar
    23   14   28 1
    24   15   16 ar
    25   15   29 1
    26   16   17 ar
    27   16   30 1
    28   17   18 ar
    29   17   31 1
    30   18   19 1
    31   19   20 2
    32   19   21 1
    33   22   32 1
    34   22   33 1
    35   22   34 1
@<TRIPOS>MOLECULE
ZINC42438483
   36    36     0     0     0
SMALL
USER_CHARGES

@<TRIPOS>ATOM
      1 C1          0.2142    0.5977   -0.0728 C.3       1 <0>        -0.1709
      2 C2         -0.4462   -0.7668   -0.2793 C.3       1 <0>         0.1711
      3 C3          0.0807   -1.7519    0.7661 C.3       1 <0>        -0.1639
      4 N1         -1.8981   -0.6333   -0.1365 N.pl3     1 <0>        -0.6389
      5 C4         -2.7808   -1.0110   -1.2430 C.3       1 <0>         0.1252
      6 C5         -3.1869   -2.4543   -1.0915 C.2       1 <0>         0.4909
      7 O1         -2.8420   -3.0817   -0.1126 O.2       1 <0>        -0.5340
      8 N2         -3.9334   -3.0478   -2.0438 N.am      1 <0>        -0.8621
      9 C6         -2.4376   -0.1488    1.0477 C.ar      1 <0>         0.1849
     10 C7         -2.6296   -1.0005    2.1273 C.ar      1 <0>        -0.1075
     11 C8         -3.1656   -0.5175    3.3042 C.ar      1 <0>        -0.1231
     12 C9         -3.5174    0.8181    3.4212 C.ar      1 <0>        -0.1148
     13 C10        -3.3357    1.6819    2.3626 C.ar      1 <0>        -0.0344
     14 C11        -2.7873    1.2092    1.1623 C.ar      1 <0>        -0.0359
     15 C12        -2.5847    2.1219    0.0330 C.2       1 <0>        -0.1146
     16 C13        -3.6355    2.8023   -0.4851 C.2       1 <0>        -0.1554
     17 C14        -3.4404    3.6812   -1.5727 C.2       1 <0>         0.5031
     18 O2         -2.3205    3.8287   -2.0481 O.co2     1 <0>        -0.6961
     19 O3         -4.3909    4.2966   -2.0414 O.co2     1 <0>        -0.7011
     20 Cl1        -3.7795    3.3531    2.5176 Cl        1 <0>        -0.0634
     21 H1          1.2980    0.4825   -0.0858 H         1 <0>         0.0570
     22 H2         -0.0890    1.2730   -0.8729 H         1 <0>         0.0697
     23 H3         -0.0958    1.0098    0.8875 H         1 <0>         0.0576
     24 H4         -0.2118   -1.1366   -1.2775 H         1 <0>         0.0761
     25 H5         -0.1537   -1.3821    1.7644 H         1 <0>         0.0555
     26 H6         -0.3898   -2.7240    0.6190 H         1 <0>         0.0630
     27 H7          1.1609   -1.8512    0.6599 H         1 <0>         0.0530
     28 H8         -3.6696   -0.3802   -1.2303 H         1 <0>         0.0977
     29 H9         -2.2550   -0.8788   -2.1886 H         1 <0>         0.0991
     30 H10        -4.2093   -2.5460   -2.8268 H         1 <0>         0.4010
     31 H11        -4.1949   -3.9768   -1.9463 H         1 <0>         0.3952
     32 H12        -2.3595   -2.0430    2.0461 H         1 <0>         0.1353
     33 H13        -3.3123   -1.1855    4.1401 H         1 <0>         0.1245
     34 H14        -3.9365    1.1838    4.3470 H         1 <0>         0.1269
     35 H15        -1.5978    2.2519   -0.3860 H         1 <0>         0.1371
     36 H16        -4.6224    2.6724   -0.0662 H         1 <0>         0.0924
@<TRIPOS>BOND
     1    1    2 1
     2    1   21 1
     3    1   22 1
     4    1   23 1
     5    2    3 1
     6    2    4 1
     7    2   24 1
     8    3   25 1
     9    3   26 1
    10    3   27 1
    11    4    5 1
    12    4    9 1
    13    5    6 1
    14    5   28 1
    15    5   29 1
    16    6    7 2
    17    6    8 am
    18    8   30 1
    19    8   31 1
    20    9   14 ar
    21    9   10 ar
    22   10   11 ar
    23   10   32 1
    24   11   12 ar
    25   11   33 1
    26   12   13 ar
    27   12   34 1
    28   13   14 ar
    29   13   20 1
    30   14   15 1
    31   15   16 2
    32   15   35 1
    33   16   17 1
    34   16   36 1
    35   17   18 2
    36   17   19 1
@<TRIPOS>MOLECULE
ZINC49124237
   47    47     0     0     0
SMALL
USER_CHARGES

@<TRIPOS>ATOM
      1 C1         -0.0187    1.5258    0.0104 C.3       1 <0>        -0.1533
      2 C2          0.0021   -0.0041    0.0020 C.3       1 <0>        -0.1203
      3 C3         -1.4333   -0.5336    0.0129 C.3       1 <0>        -0.0891
      4 C4         -2.1352   -0.1312   -1.2857 C.3       1 <0>        -0.1093
      5 C5         -3.5706   -0.6608   -1.2748 C.3       1 <0>        -0.1249
      6 C6         -3.5506   -2.1862   -1.1575 C.3       1 <0>         0.1689
      7 C7         -2.8486   -2.5886    0.1411 C.3       1 <0>        -0.1318
      8 C8         -1.4133   -2.0590    0.1302 C.3       1 <0>        -0.1105
      9 N1         -4.9250   -2.6932   -1.1471 N.am      1 <0>        -0.7513
     10 C9         -5.1814   -3.9533   -1.5506 C.2       1 <0>         0.7079
     11 O1         -4.2721   -4.6693   -1.9233 O.2       1 <0>        -0.5961
     12 N2         -6.4458   -4.4199   -1.5411 N.am      1 <0>        -0.7100
     13 C10        -6.7246   -5.7896   -1.9797 C.3       1 <0>         0.1030
     14 H1         -6.0493   -6.0551   -2.7931 H         1 <0>         0.0773
     15 C11        -6.5194   -6.7379   -0.8266 C.2       1 <0>         0.4953
     16 O2         -6.3522   -6.3013    0.2994 O.co2     1 <0>        -0.6891
     17 O3         -6.5205   -7.9417   -1.0197 O.co2     1 <0>        -0.6960
     18 C12        -8.1719   -5.8845   -2.4668 C.3       1 <0>        -0.0616
     19 C13        -8.3802   -4.9217   -3.6375 C.3       1 <0>        -0.1348
     20 C14        -8.4630   -7.3150   -2.9249 C.3       1 <0>        -0.1385
     21 C15        -9.1197   -5.5118   -1.3250 C.3       1 <0>        -0.1343
     22 H2          1.0039    1.9031    0.0027 H         1 <0>         0.0498
     23 H3         -0.5459    1.8868   -0.8726 H         1 <0>         0.0557
     24 H4         -0.5289    1.8773    0.9072 H         1 <0>         0.0520
     25 H5          0.5123   -0.3556   -0.8948 H         1 <0>         0.0612
     26 H6          0.5293   -0.3651    0.8851 H         1 <0>         0.0604
     27 H7         -1.9701   -0.1109    0.8621 H         1 <0>         0.0692
     28 H8         -2.1495    0.9555   -1.3693 H         1 <0>         0.0654
     29 H9         -1.5984   -0.5539   -2.1349 H         1 <0>         0.0638
     30 H10        -4.1074   -0.2381   -0.4256 H         1 <0>         0.0647
     31 H11        -4.0707   -0.3741   -2.1999 H         1 <0>         0.0656
     32 H12        -3.0137   -2.6089   -2.0067 H         1 <0>         0.0832
     33 H13        -3.3855   -2.1659    0.9903 H         1 <0>         0.0598
     34 H14        -2.8344   -3.6753    0.2247 H         1 <0>         0.0729
     35 H15        -0.8764   -2.4817   -0.7190 H         1 <0>         0.0630
     36 H16        -0.9132   -2.3457    1.0553 H         1 <0>         0.0616
     37 H17        -5.6504   -2.1221   -0.8498 H         1 <0>         0.3883
     38 H18        -7.1713   -3.8487   -1.2437 H         1 <0>         0.3841
     39 H19        -7.7049   -5.1873   -4.4509 H         1 <0>         0.0502
     40 H20        -9.4113   -4.9894   -3.9845 H         1 <0>         0.0483
     41 H21        -8.1728   -3.9026   -3.3111 H         1 <0>         0.0481
     42 H22        -8.3146   -8.0009   -2.0909 H         1 <0>         0.0884
     43 H23        -9.4941   -7.3826   -3.2719 H         1 <0>         0.0391
     44 H24        -7.7877   -7.5805   -3.7383 H         1 <0>         0.0477
     45 H25        -8.9123   -4.4927   -0.9987 H         1 <0>         0.0446
     46 H26       -10.1508   -5.5794   -1.6720 H         1 <0>         0.0464
     47 H27        -8.9713   -6.1977   -0.4910 H         1 <0>         0.0649
@<TRIPOS>BOND
     1    1    2 1
     2    1   22 1
     3    1   23 1
     4    1   24 1
     5    2    3 1
     6    2   25 1
     7    2   26 1
     8    3    8 1
     9    3    4 1
    10    3   27 1
    11    4    5 1
    12    4   28 1
    13    4   29 1
    14    5    6 1
    15    5   30 1
    16    5   31 1
    17    6    7 1
    18    6    9 1
    19    6   32 1
    20    7    8 1
    21    7   33 1
    22    7   34 1
    23    8   35 1
    24    8   36 1
    25    9   10 am
    26    9   37 1
    27   10   11 2
    28   10   12 am
    29   12   13 1
    30   12   38 1
    31   13   14 1
    32   13   15 1
    33   13   18 1
    34   15   16 2
    35   15   17 1
    36   18   19 1
    37   18   20 1
    38   18   21 1
    39   19   39 1
    40   19   40 1
    41   19   41 1
    42   20   42 1
    43   20   43 1
    44   20   44 1
    45   21   45 1
    46   21   46 1
    47   21   47 1
@<TRIPOS>MOLECULE
ZINC52344140
   47    47     0     0     0
SMALL
USER_CHARGES

@<TRIPOS>ATOM
      1 C1         -0.0187    1.5258    0.0104 C.3       1 <0>        -0.1629
      2 C2          0.0021   -0.0041    0.0020 C.3       1 <0>         0.1666
      3 H1          0.5123   -0.3556   -0.8948 H         1 <0>         0.0851
      4 C3         -1.4333   -0.5336    0.0129 C.3       1 <0>        -0.0901
      5 C4         -1.4126   -2.0635    0.0045 C.3       1 <0>        -0.1154
      6 C5         -2.8479   -2.5931    0.0153 C.3       1 <0>        -0.1180
      7 C6         -3.5879   -2.0862   -1.2242 C.3       1 <0>        -0.1206
      8 C7         -3.6087   -0.5564   -1.2158 C.3       1 <0>        -0.1166
      9 C8         -2.1733   -0.0268   -1.2266 C.3       1 <0>        -0.1135
     10 N1          0.7106   -0.4894    1.1889 N.am      1 <0>        -0.7480
     11 C9          2.0538   -0.5998    1.1737 C.2       1 <0>         0.7106
     12 O1          2.6774   -0.2967    0.1749 O.2       1 <0>        -0.5960
     13 N2          2.7056   -1.0463    2.2656 N.am      1 <0>        -0.7108
     14 C10         4.1656   -1.1663    2.2490 C.3       1 <0>         0.1033
     15 H2          4.5896   -0.3607    1.6497 H         1 <0>         0.0770
     16 C11         4.5537   -2.4944    1.6519 C.2       1 <0>         0.4940
     17 O2          3.6908   -3.2689    1.2751 O.co2     1 <0>        -0.6865
     18 O3          5.7307   -2.7944    1.5457 O.co2     1 <0>        -0.6948
     19 C12         4.7011   -1.0741    3.6793 C.3       1 <0>        -0.0598
     20 C13         4.1059   -2.2050    4.5206 C.3       1 <0>        -0.1342
     21 C14         6.2259   -1.1995    3.6620 C.3       1 <0>        -0.1446
     22 C15         4.3071    0.2742    4.2855 C.3       1 <0>        -0.1351
     23 H3          1.0039    1.9031    0.0027 H         1 <0>         0.0603
     24 H4         -0.5459    1.8868   -0.8726 H         1 <0>         0.0617
     25 H5         -0.5289    1.8773    0.9072 H         1 <0>         0.0507
     26 H6         -1.9435   -0.1821    0.9097 H         1 <0>         0.0707
     27 H7         -0.9024   -2.4150   -0.8923 H         1 <0>         0.0644
     28 H8         -0.8854   -2.4246    0.8875 H         1 <0>         0.0668
     29 H9         -2.8332   -3.6829    0.0093 H         1 <0>         0.0601
     30 H10        -3.3581   -2.2415    0.9121 H         1 <0>         0.0583
     31 H11        -3.0777   -2.4378   -2.1210 H         1 <0>         0.0614
     32 H12        -4.6105   -2.4635   -1.2165 H         1 <0>         0.0568
     33 H13        -4.1359   -0.1953   -2.0988 H         1 <0>         0.0591
     34 H14        -4.1189   -0.2049   -0.3190 H         1 <0>         0.0593
     35 H15        -2.1881    1.0631   -1.2207 H         1 <0>         0.0662
     36 H16        -1.6631   -0.3783   -2.1234 H         1 <0>         0.0648
     37 H17         0.2131   -0.7312    1.9857 H         1 <0>         0.3874
     38 H18         2.2081   -1.2881    3.0624 H         1 <0>         0.3831
     39 H19         4.3866   -3.1656    4.0887 H         1 <0>         0.0639
     40 H20         4.4874   -2.1393    5.5395 H         1 <0>         0.0468
     41 H21         3.0197   -2.1157    4.5329 H         1 <0>         0.0434
     42 H22         6.6499   -0.3939    3.0627 H         1 <0>         0.0445
     43 H23         6.6074   -1.1339    4.6810 H         1 <0>         0.0357
     44 H24         6.5066   -2.1601    3.2301 H         1 <0>         0.1002
     45 H25         3.2208    0.3636    4.2978 H         1 <0>         0.0475
     46 H26         4.6886    0.3399    5.3044 H         1 <0>         0.0478
     47 H27         4.7311    1.0799    3.6861 H         1 <0>         0.0496
@<TRIPOS>BOND
     1    1    2 1
     2    1   23 1
     3    1   24 1
     4    1   25 1
     5    2    3 1
     6    2    4 1
     7    2   10 1
     8    4    9 1
     9    4    5 1
    10    4   26 1
    11    5    6 1
    12    5   27 1
    13    5   28 1
    14    6    7 1
    15    6   29 1
    16    6   30 1
    17    7    8 1
    18    7   31 1
    19    7   32 1
    20    8    9 1
    21    8   33 1
    22    8   34 1
    23    9   35 1
    24    9   36 1
    25   10   11 am
    26   10   37 1
    27   11   12 2
    28   11   13 am
    29   13   14 1
    30   13   38 1
    31   14   15 1
    32   14   16 1
    33   14   19 1
    34   16   17 2
    35   16   18 1
    36   19   20 1
    37   19   21 1
    38   19   22 1
    39   20   39 1
    40   20   40 1
    41   20   41 1
    42   21   42 1
    43   21   43 1
    44   21   44 1
    45   22   45 1
    46   22   46 1
    47   22   47 1
@<TRIPOS>MOLECULE
ZINC66276645
   24    25     0     0     0
SMALL
USER_CHARGES

@<TRIPOS>ATOM
      1 C1         -0.0187    1.5258    0.0104 C.3       1 <0>        -0.1386
      2 C2          0.0021   -0.0041    0.0020 C.3       1 <0>        -0.1077
      3 H1         -1.0205   -0.3814    0.0098 H         1 <0>         0.1125
      4 C3          0.7309   -0.5033    1.2229 C.2       1 <0>         0.5429
      5 O1          1.9109   -0.7754    1.1557 O.2       1 <0>        -0.5279
      6 N1          0.0715   -0.6474    2.3895 N.am      1 <0>        -0.8507
      7 S1          0.8511   -0.5891   -1.4904 S.3       1 <0>         0.0311
      8 C4         -0.1893   -0.0568   -2.8091 C.2       1 <0>         0.1970
      9 N2         -1.3101    0.6091   -2.6633 N.2       1 <0>        -0.5629
     10 C5         -1.8571    0.8581   -3.8794 C.ar      1 <0>         0.2128
     11 C6         -0.9955    0.2963   -4.8391 C.ar      1 <0>        -0.0271
     12 N3          0.0538   -0.2706   -4.1359 N.2       1 <0>        -0.5515
     13 C7         -1.3115    0.4023   -6.1847 C.ar      1 <0>        -0.0148
     14 C8         -2.4786    1.0660   -6.5342 C.ar      1 <0>        -0.1751
     15 C9         -3.2836    1.5967   -5.5402 C.ar      1 <0>         0.1105
     16 N4         -2.9652    1.4850   -4.2675 N.ar      1 <0>        -0.4599
     17 Br1        -2.9656    1.2450   -8.3526 Br        1 <0>        -0.0786
     18 H2          1.0039    1.9031    0.0027 H         1 <0>         0.0639
     19 H3         -0.5459    1.8868   -0.8726 H         1 <0>         0.0949
     20 H4         -0.5289    1.8773    0.9072 H         1 <0>         0.0574
     21 H5         -0.8722   -0.4298    2.4432 H         1 <0>         0.4031
     22 H6          0.5407   -0.9687    3.1753 H         1 <0>         0.4021
     23 H7         -0.6663   -0.0203   -6.9407 H         1 <0>         0.1206
     24 H8         -4.1914    2.1133   -5.8148 H         1 <0>         0.1459
@<TRIPOS>BOND
     1    1    2 1
     2    1   18 1
     3    1   19 1
     4    1   20 1
     5    2    3 1
     6    2    4 1
     7    2    7 1
     8    4    5 2
     9    4    6 am
    10    6   21 1
    11    6   22 1
    12    7    8 1
    13    8    9 2
    14    8   12 1
    15    9   10 1
    16   10   16 ar
    17   10   11 ar
    18   11   13 ar
    19   11   12 1
    20   13   14 ar
    21   13   23 1
    22   14   15 ar
    23   14   17 1
    24   15   16 ar
    25   15   24 1
@<TRIPOS>MOLECULE
ZINC19626620
   31    33     0     0     0
SMALL
USER_CHARGES
(2S)-6-bromo-2-(4-methoxyphenyl)-1,3-dihydroimidazo[4,5-b]pyridin-2-ol
@<TRIPOS>ATOM
      1 C1         -3.3606    7.4005   -5.8067 C.3       1 <0>         0.0217
      2 O1         -3.6853    7.9766   -4.5399 O.3       1 <0>        -0.3147
      3 C2         -3.2468    7.3208   -3.4333 C.ar      1 <0>         0.1449
      4 C3         -3.5263    7.8240   -2.1710 C.ar      1 <0>        -0.1603
      5 C4         -3.0798    7.1552   -1.0477 C.ar      1 <0>        -0.0391
      6 C5         -2.3550    5.9853   -1.1807 C.ar      1 <0>        -0.1392
      7 C6         -2.0703    5.4848   -2.4377 C.ar      1 <0>        -0.0369
      8 C7         -2.5194    6.1467   -3.5641 C.ar      1 <0>        -0.2144
      9 C8         -1.8692    5.2578    0.0464 C.3       1 <0>         0.6053
     10 N1         -0.4041    5.1626    0.0322 N.pl3     1 <0>        -0.7505
     11 C9         -0.0793    3.8006    0.0223 C.ar      1 <0>         0.0997
     12 C10         1.1543    3.1601    0.0075 C.ar      1 <0>        -0.0771
     13 C11         1.1801    1.7718    0.0003 C.ar      1 <0>        -0.1520
     14 C12        -0.0126    1.0758    0.0080 C.ar      1 <0>         0.1319
     15 N2         -1.1693    1.7093    0.0169 N.ar      1 <0>        -0.4917
     16 C13        -1.2439    3.0346    0.0293 C.ar      1 <0>         0.3538
     17 N3         -2.3587    3.8744    0.0440 N.pl3     1 <0>        -0.7328
     18 Br1         2.8285    0.8454   -0.0204 Br        1 <0>        -0.0362
     19 O2         -2.3080    5.9343    1.2262 O.3       1 <0>        -0.5961
     20 H1         -3.7729    8.0274   -6.6111 H         1 <0>         0.1049
     21 H2         -3.7916    6.3905   -5.8715 H         1 <0>         0.0585
     22 H3         -2.2674    7.3402   -5.9126 H         1 <0>         0.0582
     23 H4         -4.0927    8.7376   -2.0667 H         1 <0>         0.1354
     24 H5         -3.2968    7.5468   -0.0649 H         1 <0>         0.1424
     25 H6         -1.4999    4.5733   -2.5391 H         1 <0>         0.1209
     26 H7         -2.3006    5.7530   -4.5456 H         1 <0>         0.1318
     27 H8          0.2065    6.0775    0.0311 H         1 <0>         0.4534
     28 H9          2.0721    3.7294    0.0015 H         1 <0>         0.1406
     29 H10         0.0021   -0.0041    0.0020 H         1 <0>         0.1659
     30 H11        -3.4402    3.6736    0.0531 H         1 <0>         0.4560
     31 H12        -2.0423    5.5391    2.2178 H         1 <0>         0.4156
@<TRIPOS>BOND
     1    1    2 1
     2    1   20 1
     3    1   21 1
     4    1   22 1
     5    2    3 1
     6    3    8 ar
     7    3    4 ar
     8    4    5 ar
     9    4   23 1
    10    5    6 ar
    11    5   24 1
    12    6    7 ar
    13    6    9 1
    14    7    8 ar
    15    7   25 1
    16    8   26 1
    17    9   17 1
    18    9   10 1
    19    9   19 1
    20   10   11 1
    21   10   27 1
    22   11   16 ar
    23   11   12 ar
    24   12   13 ar
    25   12   28 1
    26   13   14 ar
    27   13   18 1
    28   14   15 ar
    29   14   29 1
    30   15   16 ar
    31   16   17 1
    32   17   30 1
    33   19   31 1
@<TRIPOS>MOLECULE
ZINC37011225
   31    32     0     0     0
SMALL
USER_CHARGES

@<TRIPOS>ATOM
      1 C1          4.2991   -2.2989    0.2452 C.3       1 <0>        -0.1158
      2 C2          2.7996   -2.6027    0.2529 C.3       1 <0>        -0.1132
      3 H1          2.3447   -2.7500   -0.7267 H         1 <0>         0.1153
      4 C3          2.2524   -3.4304    1.4175 C.3       1 <0>        -0.1465
      5 C4          1.9485   -1.9325    1.3334 C.3       1 <0>        -0.1957
      6 H2          0.9337   -1.6392    1.0648 H         1 <0>         0.1276
      7 C5          2.6514   -1.0237    2.3086 C.2       1 <0>         0.5557
      8 O1          3.8480   -0.8470    2.2186 O.2       1 <0>        -0.5056
      9 N1          1.9505   -0.4073    3.2808 N.am      1 <0>        -0.6918
     10 C6          2.6167    0.3525    4.2501 C.ar      1 <0>         0.2167
     11 C7          2.8238    1.7115    4.0485 C.ar      1 <0>        -0.0424
     12 C8          3.4820    2.4584    5.0075 C.ar      1 <0>         0.0002
     13 C9          3.9345    1.8545    6.1662 C.ar      1 <0>        -0.6534
     14 C10         3.7301    0.5023    6.3702 C.ar      1 <0>         0.0002
     15 C11         3.0673   -0.2496    5.4183 C.ar      1 <0>        -0.0440
     16 Cl1         2.8046   -1.9457    5.6789 Cl        1 <0>        -0.0279
     17 S1          4.7739    2.8104    7.3854 S.o2      1 <0>         2.7064
     18 O2          5.5771    1.9045    8.1295 O.2       1 <0>        -0.9504
     19 O3          5.3196    3.9371    6.7132 O.2       1 <0>        -0.9503
     20 N2          3.6259    3.3914    8.4279 N.pl3     1 <0>        -1.2469
     21 Cl2         2.2571    2.4704    2.5937 Cl        1 <0>        -0.0270
     22 H3          4.7377   -2.6102    1.1933 H         1 <0>         0.0636
     23 H4          4.7756   -2.8417   -0.5711 H         1 <0>         0.0536
     24 H5          4.4523   -1.2285    0.1080 H         1 <0>         0.0681
     25 H6          1.4373   -4.1219    1.2043 H         1 <0>         0.1080
     26 H7          2.9607   -3.7585    2.1783 H         1 <0>         0.1011
     27 H8          0.9844   -0.4900    3.3090 H         1 <0>         0.4188
     28 H9          3.6433    3.5148    4.8515 H         1 <0>         0.1662
     29 H10         4.0852    0.0338    7.2763 H         1 <0>         0.1663
     30 H11         2.6905    3.1757    8.2885 H         1 <0>         0.4181
     31 H12         3.8889    3.9473    9.1780 H         1 <0>         0.4250
@<TRIPOS>BOND
     1    1    2 1
     2    1   22 1
     3    1   23 1
     4    1   24 1
     5    2    3 1
     6    2    5 1
     7    2    4 1
     8    4    5 1
     9    4   25 1
    10    4   26 1
    11    5    6 1
    12    5    7 1
    13    7    8 2
    14    7    9 am
    15    9   10 1
    16    9   27 1
    17   10   15 ar
    18   10   11 ar
    19   11   12 ar
    20   11   21 1
    21   12   13 ar
    22   12   28 1
    23   13   14 ar
    24   13   17 1
    25   14   15 ar
    26   14   29 1
    27   15   16 1
    28   17   18 2
    29   17   19 2
    30   17   20 1
    31   20   30 1
    32   20   31 1
@<TRIPOS>MOLECULE
ZINC39706703
   34    37     0     0     0
SMALL
USER_CHARGES

@<TRIPOS>ATOM
      1 C1          0.6413    1.6138   -0.6555 C.ar      1 <0>        -0.1383
      2 C2          1.8197    2.2080   -0.2304 C.ar      1 <0>        -0.0447
      3 C3          2.9030    1.4364    0.1401 C.ar      1 <0>        -0.1471
      4 C4          2.8135    0.0537    0.0871 C.ar      1 <0>         0.1679
      5 C5          1.6191   -0.5497   -0.3437 C.ar      1 <0>        -0.1758
      6 C6          0.5336    0.2401   -0.7147 C.ar      1 <0>        -0.0150
      7 C7          1.5580   -2.0218   -0.3875 C.2       1 <0>         0.5755
      8 O1          0.5490   -2.5936   -0.7529 O.2       1 <0>        -0.4536
      9 N1          2.6521   -2.7191   -0.0116 N.am      1 <0>        -0.3515
     10 C8          3.7700   -2.0963    0.3930 C.2       1 <0>         0.5089
     11 S1          5.1164   -3.0476    0.8548 S.2       1 <0>        -0.5233
     12 N2          3.8779   -0.7578    0.4508 N.pl3     1 <0>        -0.5764
     13 H1          4.7083   -0.3554    0.7501 H         1 <0>         0.4487
     14 N3          2.6199   -4.0844   -0.0436 N.3       1 <0>        -0.4130
     15 C9          2.8825   -4.5856   -1.3992 C.3       1 <0>         0.3274
     16 H2          2.8852   -5.6754   -1.4182 H         1 <0>         0.1570
     17 N4          1.9131   -4.0427   -2.3605 N.pl3     1 <0>        -0.7246
     18 C10         2.4066   -3.2498   -3.3954 C.ar      1 <0>         0.1756
     19 C11         1.6343   -2.6472   -4.4045 C.ar      1 <0>        -0.1567
     20 C12         2.2179   -1.8803   -5.3858 C.ar      1 <0>        -0.0761
     21 C13         3.5851   -1.6758   -5.4140 C.ar      1 <0>        -0.1491
     22 C14         4.3708   -2.2571   -4.4327 C.ar      1 <0>        -0.0435
     23 C15         3.7855   -3.0241   -3.4508 C.ar      1 <0>        -0.1530
     24 S2          4.4577   -3.9089   -2.0607 S.3       1 <0>        -0.1351
     25 H3         -0.1992    2.2306   -0.9378 H         1 <0>         0.1437
     26 H4          1.8910    3.2848   -0.1890 H         1 <0>         0.1448
     27 H5          3.8170    1.9081    0.4696 H         1 <0>         0.1461
     28 H6         -0.3857   -0.2198   -1.0459 H         1 <0>         0.1486
     29 H7          3.2712   -4.4770    0.6196 H         1 <0>         0.4030
     30 H8          0.9647   -4.2293   -2.2782 H         1 <0>         0.4216
     31 H9          0.5637   -2.7894   -4.4091 H         1 <0>         0.1217
     32 H10         1.5980   -1.4306   -6.1473 H         1 <0>         0.1277
     33 H11         4.0335   -1.0724   -6.1894 H         1 <0>         0.1316
     34 H12         5.4405   -2.1087   -4.4376 H         1 <0>         0.1270
@<TRIPOS>BOND
     1    1    6 ar
     2    1    2 ar
     3    1   25 1
     4    2    3 ar
     5    2   26 1
     6    3    4 ar
     7    3   27 1
     8    4   12 1
     9    4    5 ar
    10    5    6 ar
    11    5    7 1
    12    6   28 1
    13    7    8 2
    14    7    9 am
    15    9   10 1
    16    9   14 1
    17   10   11 2
    18   10   12 1
    19   12   13 1
    20   14   15 1
    21   14   29 1
    22   15   16 1
    23   15   24 1
    24   15   17 1
    25   17   18 1
    26   17   30 1
    27   18   23 ar
    28   18   19 ar
    29   19   20 ar
    30   19   31 1
    31   20   21 ar
    32   20   32 1
    33   21   22 ar
    34   21   33 1
    35   22   23 ar
    36   22   34 1
    37   23   24 1
@<TRIPOS>MOLECULE
ZINC50695499
   34    35     0     0     0
SMALL
USER_CHARGES

@<TRIPOS>ATOM
      1 C1          0.0152    1.5036    0.0189 C.3       1 <0>        -0.1111
      2 C2          0.0229   -0.0033    0.0069 C.ar      1 <0>        -0.0999
      3 C3          0.0241   -0.6834   -1.1970 C.ar      1 <0>        -0.0957
      4 C4          0.0311   -2.0658   -1.2144 C.ar      1 <0>        -0.1830
      5 C5          0.0370   -2.7739   -0.0236 C.ar      1 <0>         0.0944
      6 C6          0.0358   -2.0893    1.1898 C.ar      1 <0>         0.1213
      7 C7          0.0344   -0.7020    1.1992 C.ar      1 <0>        -0.0943
      8 N1          0.0418   -2.7997    2.3968 N.am      1 <0>        -0.6523
      9 C8         -0.4436   -2.2289    3.5171 C.2       1 <0>         0.5820
     10 O1         -0.9788   -1.1383    3.4611 O.2       1 <0>        -0.5293
     11 C9         -0.3257   -2.9265    4.8103 C.ar      1 <0>        -0.2687
     12 C10         0.3818   -4.1304    4.9087 C.ar      1 <0>         0.0381
     13 C11         0.4631   -4.7459    6.1457 C.ar      1 <0>        -0.2237
     14 C12        -0.1509   -4.1605    7.2399 C.ar      1 <0>         0.2259
     15 N2         -0.8131   -3.0261    7.1258 N.ar      1 <0>        -0.5399
     16 C13        -0.9166   -2.3923    5.9678 C.ar      1 <0>         0.4742
     17 N3         -1.6158   -1.2010    5.8959 N.pl3     1 <0>        -0.8161
     18 Br1         1.4049   -6.3742    6.3397 Br        1 <0>        -0.0301
     19 O2          0.0435   -4.1335   -0.0391 O.3       1 <0>        -0.3220
     20 C14         0.0438   -4.7677   -1.3196 C.3       1 <0>         0.0292
     21 H1          1.0410    1.8722    0.0149 H         1 <0>         0.0701
     22 H2         -0.5065    1.8713   -0.8648 H         1 <0>         0.0670
     23 H3         -0.4945    1.8573    0.9151 H         1 <0>         0.0680
     24 H4          0.0191   -0.1332   -2.1264 H         1 <0>         0.1274
     25 H5          0.0316   -2.5939   -2.1565 H         1 <0>         0.1337
     26 H6          0.0379   -0.1682    2.1380 H         1 <0>         0.1532
     27 H7          0.3952   -3.7026    2.4265 H         1 <0>         0.4154
     28 H8          0.8524   -4.5683    4.0408 H         1 <0>         0.1453
     29 H9         -0.0865   -4.6421    8.2044 H         1 <0>         0.1730
     30 H10        -1.6348   -0.6992    5.0661 H         1 <0>         0.4271
     31 H11        -2.0870   -0.8675    6.6754 H         1 <0>         0.4050
     32 H12        -0.8488   -4.4728   -1.8714 H         1 <0>         0.0569
     33 H13         0.9312   -4.4643   -1.8751 H         1 <0>         0.0572
     34 H14         0.0493   -5.8499   -1.1891 H         1 <0>         0.1021
@<TRIPOS>BOND
     1    1    2 1
     2    1   21 1
     3    1   22 1
     4    1   23 1
     5    2    7 ar
     6    2    3 ar
     7    3    4 ar
     8    3   24 1
     9    4    5 ar
    10    4   25 1
    11    5    6 ar
    12    5   19 1
    13    6    7 ar
    14    6    8 1
    15    7   26 1
    16    8    9 am
    17    8   27 1
    18    9   10 2
    19    9   11 1
    20   11   16 ar
    21   11   12 ar
    22   12   13 ar
    23   12   28 1
    24   13   14 ar
    25   13   18 1
    26   14   15 ar
    27   14   29 1
    28   15   16 ar
    29   16   17 1
    30   17   30 1
    31   17   31 1
    32   19   20 1
    33   20   32 1
    34   20   33 1
    35   20   34 1
@<TRIPOS>MOLECULE
ZINC63513664
   39    42     0     0     0
SMALL
NO_CHARGES

@<TRIPOS>ATOM
      1 C1         -0.0127    1.0858    0.0080 C.3       1 <0>        -0.1472
      2 C2         -0.7527    1.5927   -1.2315 C.3       1 <0>         0.0631
      3 C3         -0.8537    3.1017   -1.2043 C.2       1 <0>         0.1494
      4 N1         -2.0437    3.4363   -1.5359 N.2       1 <0>        -0.4553
      5 C4         -2.8374    2.2334   -1.8131 C.3       1 <0>         0.2840
      6 H1         -2.9312    2.0863   -2.8891 H         1 <0>         0.1145
      7 O1         -2.1196    1.1323   -1.2237 O.3       1 <0>        -0.3622
      8 C5         -4.2025    2.3579   -1.1870 C.2       1 <0>        -0.1552
      9 C6         -5.0264    3.4333   -1.1426 C.2       1 <0>        -0.1248
     10 C7         -6.2481    3.3159   -0.5068 C.2       1 <0>        -0.1600
     11 C8         -6.5862    2.1289    0.0535 C.2       1 <0>        -0.1759
     12 S1         -5.1574    1.1250   -0.3180 S.3       1 <0>         0.0718
     13 C9          0.2601    4.0517   -0.8464 C.3       1 <0>        -0.0088
     14 S2         -0.3426    5.7591   -0.9571 S.3       1 <0>        -0.2912
     15 C10         1.0980    6.7633   -0.5025 C.3       1 <0>         0.3967
     16 H2          0.8451    7.8226   -0.5492 H         1 <0>         0.1176
     17 N2          2.2205    6.4726   -1.4048 N.pl3     1 <0>        -0.6443
     18 C11         3.1945    6.0138   -0.6768 C.ar      1 <0>        -0.0361
     19 C12         4.5574    5.5510   -0.9725 C.ar      1 <0>        -0.1769
     20 C13         5.3327    5.1252    0.0474 C.ar      1 <0>         0.0797
     21 N3          4.9318    5.0995    1.3177 N.ar      1 <0>        -0.5245
     22 C14         3.7554    5.4779    1.7272 C.ar      1 <0>        -0.1674
     23 C15         2.7699    5.9753    0.7511 C.ar      1 <0>         0.1531
     24 N4          1.5510    6.4122    0.8500 N.pl3     1 <0>        -0.6747
     25 H3          0.0021   -0.0041    0.0020 H         1 <0>         0.0740
     26 H4          1.0099    1.4631    0.0003 H         1 <0>         0.0784
     27 H5         -0.5229    1.4373    0.9048 H         1 <0>         0.0665
     28 H6          0.5966    3.8504    0.1706 H         1 <0>         0.1068
     29 H7         -4.7325    4.3680   -1.5970 H         1 <0>         0.1387
     30 H8         -6.9231    4.1575   -0.4570 H         1 <0>         0.1360
     31 H9         -7.4877    1.8592    0.5836 H         1 <0>         0.1874
     32 H10         1.0912    3.9143   -1.5381 H         1 <0>         0.1076
     33 H11        -0.2456    1.2608   -2.1375 H         1 <0>         0.1014
     34 H12         4.9314    5.5511   -1.9857 H         1 <0>         0.1272
     35 H13         6.3329    4.7864   -0.1789 H         1 <0>         0.1438
     36 H14         3.5032    5.4275    2.7762 H         1 <0>         0.1404
     37 H15         1.0340    6.4921    1.6668 H         1 <0>         0.4307
     38 H16         2.2324    6.5996   -2.3664 H         1 <0>         0.4293
     39 H17         5.5594    4.7764    1.9830 H         1 <0>         0.4064
@<TRIPOS>BOND
     1    1   25 1
     2    1   26 1
     3    1   27 1
     4    1    2 1
     5    2    7 1
     6    2   33 1
     7    2    3 1
     8    3   13 1
     9    3    4 2
    10    4    5 1
    11    5    6 1
    12    5    7 1
    13    5    8 1
    14    8   12 1
    15    8    9 2
    16    9   10 1
    17    9   29 1
    18   10   11 2
    19   10   30 1
    20   11   12 1
    21   11   31 1
    22   13   14 1
    23   13   32 1
    24   13   28 1
    25   14   15 1
    26   15   16 1
    27   15   24 1
    28   15   17 1
    29   17   18 2
    30   17   38 1
    31   18   23 ar
    32   18   19 ar
    33   19   20 ar
    34   19   34 1
    35   20   21 ar
    36   20   35 1
    37   21   22 ar
    38   21   39 1
    39   22   23 ar
    40   22   36 1
    41   23   24 2
    42   24   37 1
@<TRIPOS>MOLECULE
ZINC17067756
   41    43     0     0     0
SMALL
USER_CHARGES
(2S)-2-(4-aminophenyl)sulfanyl-N-(1,3-benzodioxol-5-ylmethyl)propanamide
@<TRIPOS>ATOM
      1 C1          8.1028   -2.9091    0.0985 C.3       1 <0>        -0.1399
      2 C2          8.3696   -1.4201    0.3279 C.3       1 <0>        -0.1115
      3 H1          8.4549   -0.9140   -0.6337 H         1 <0>         0.1057
      4 C3          7.2307   -0.8207    1.1118 C.2       1 <0>         0.5373
      5 O1          7.3449   -0.6407    2.3058 O.2       1 <0>        -0.5155
      6 N1          6.0852   -0.4846    0.4862 N.am      1 <0>        -0.7240
      7 C4          4.9781    0.0981    1.2483 C.3       1 <0>         0.1672
      8 C5          3.8240    0.3807    0.3212 C.ar      1 <0>        -0.1026
      9 C6          2.8609   -0.5870    0.1039 C.ar      1 <0>        -0.0871
     10 C7          1.8007   -0.3327   -0.7459 C.ar      1 <0>        -0.1017
     11 C8          1.7008    0.8940   -1.3820 C.ar      1 <0>         0.0418
     12 C9          2.6707    1.8690   -1.1628 C.ar      1 <0>         0.0305
     13 C10         3.7305    1.6071   -0.3097 C.ar      1 <0>        -0.0808
     14 O2          2.3505    2.9754   -1.8953 O.3       1 <0>        -0.3073
     15 C11         0.9628    2.8167   -2.2448 C.3       1 <0>         0.2127
     16 O3          0.7730    1.3895   -2.2521 O.3       1 <0>        -0.3076
     17 S1          9.9149   -1.2187    1.2564 S.3       1 <0>        -0.0761
     18 C12        11.1604   -1.7603    0.1339 C.ar      1 <0>        -0.1934
     19 C13        11.6099   -3.0741    0.1762 C.ar      1 <0>        -0.0164
     20 C14        12.5818   -3.4998   -0.7074 C.ar      1 <0>        -0.2080
     21 C15        13.1181   -2.6118   -1.6305 C.ar      1 <0>         0.2420
     22 C16        12.6730   -1.2969   -1.6691 C.ar      1 <0>        -0.2076
     23 C17        11.6971   -0.8722   -0.7896 C.ar      1 <0>        -0.0210
     24 N2         14.1074   -3.0423   -2.5228 N.pl3     1 <0>        -0.8740
     25 H2          7.1308   -3.0349   -0.3785 H         1 <0>         0.0657
     26 H3          8.8795   -3.3225   -0.5449 H         1 <0>         0.0704
     27 H4          8.1081   -3.4308    1.0555 H         1 <0>         0.0756
     28 H5          5.9939   -0.6286   -0.4687 H         1 <0>         0.4032
     29 H6          5.3066    1.0276    1.7133 H         1 <0>         0.0823
     30 H7          4.6605   -0.6022    2.0208 H         1 <0>         0.0844
     31 H8          2.9371   -1.5439    0.5989 H         1 <0>         0.1420
     32 H9          1.0497   -1.0905   -0.9138 H         1 <0>         0.1396
     33 H10         4.4839    2.3615   -0.1375 H         1 <0>         0.1386
     34 H11         0.7663    3.2343   -3.2322 H         1 <0>         0.1345
     35 H12         0.3234    3.2843   -1.4960 H         1 <0>         0.0875
     36 H13        11.1960   -3.7636    0.8971 H         1 <0>         0.1316
     37 H14        12.9278   -4.5225   -0.6778 H         1 <0>         0.1255
     38 H15        13.0900   -0.6066   -2.3874 H         1 <0>         0.1250
     39 H16        11.3507    0.1503   -0.8199 H         1 <0>         0.1296
     40 H17        14.4819   -2.4222   -3.1678 H         1 <0>         0.4007
     41 H18        14.4184   -3.9607   -2.4959 H         1 <0>         0.4008
@<TRIPOS>BOND
     1    1    2 1
     2    1   25 1
     3    1   26 1
     4    1   27 1
     5    2    3 1
     6    2    4 1
     7    2   17 1
     8    4    5 2
     9    4    6 am
    10    6    7 1
    11    6   28 1
    12    7    8 1
    13    7   29 1
    14    7   30 1
    15    8   13 ar
    16    8    9 ar
    17    9   10 ar
    18    9   31 1
    19   10   11 ar
    20   10   32 1
    21   11   16 1
    22   11   12 ar
    23   12   13 ar
    24   12   14 1
    25   13   33 1
    26   14   15 1
    27   15   16 1
    28   15   34 1
    29   15   35 1
    30   17   18 1
    31   18   23 ar
    32   18   19 ar
    33   19   20 ar
    34   19   36 1
    35   20   21 ar
    36   20   37 1
    37   21   22 ar
    38   21   24 1
    39   22   23 ar
    40   22   38 1
    41   23   39 1
    42   24   40 1
    43   24   41 1
@<TRIPOS>MOLECULE
ZINC40346667
   33    34     0     0     0
SMALL
USER_CHARGES

@<TRIPOS>ATOM
      1 C1         -0.0178    1.4608    0.0101 C.3       1 <0>         0.0776
      2 N1          0.0021   -0.0041    0.0020 N.pl3     1 <0>        -0.9956
      3 C2          0.0241   -0.7433    1.2666 C.3       1 <0>         0.2097
      4 C3         -1.3844   -0.9091    1.7762 C.2       1 <0>        -0.1703
      5 C4         -2.2643   -1.9124    1.5405 C.2       1 <0>        -0.1268
      6 C5         -3.5182   -1.8549    2.1205 C.2       1 <0>        -0.1393
      7 C6         -3.8298   -0.7953    2.9082 C.2       1 <0>        -0.1165
      8 S1         -2.3235    0.1613    2.8529 S.3       1 <0>         0.0926
      9 Cl1        -5.3074   -0.4601    3.7556 Cl        1 <0>         0.0179
     10 S2         -0.0004   -0.8243   -1.4366 S.o2      1 <0>         2.6901
     11 O1         -0.5312   -2.1147   -1.1675 O.2       1 <0>        -0.9481
     12 O2         -0.5723    0.0488   -2.4009 O.2       1 <0>        -0.9479
     13 C7          1.6818   -1.0594   -1.9051 C.ar      1 <0>        -0.6366
     14 C8          2.3221   -0.1078   -2.6771 C.ar      1 <0>        -0.0624
     15 C9          3.6424   -0.2866   -3.0475 C.ar      1 <0>        -0.1155
     16 C10         4.3273   -1.4213   -2.6453 C.ar      1 <0>         0.0823
     17 C11         3.6829   -2.3807   -1.8674 C.ar      1 <0>         0.1779
     18 C12         2.3598   -2.1920   -1.4952 C.ar      1 <0>        -0.0902
     19 N2          4.3699   -3.5295   -1.4584 N.pl3     1 <0>        -0.8698
     20 O3          5.6257   -1.5987   -3.0093 O.3       1 <0>        -0.4913
     21 H1          1.0048    1.8381    0.0023 H         1 <0>         0.0629
     22 H2         -0.5450    1.8219   -0.8730 H         1 <0>         0.0880
     23 H3         -0.5280    1.8123    0.9069 H         1 <0>         0.0787
     24 H4          0.4703   -1.7247    1.1061 H         1 <0>         0.1089
     25 H5          0.6131   -0.1919    1.9996 H         1 <0>         0.1019
     26 H6         -1.9903   -2.7444    0.9088 H         1 <0>         0.1544
     27 H7         -4.2385   -2.6411    1.9487 H         1 <0>         0.1445
     28 H8          1.7896    0.7774   -2.9920 H         1 <0>         0.1424
     29 H9          4.1394    0.4585   -3.6509 H         1 <0>         0.1404
     30 H10         1.8586   -2.9316   -0.8884 H         1 <0>         0.1424
     31 H11         5.2959   -3.6585   -1.7165 H         1 <0>         0.4048
     32 H12         3.9199   -4.1966   -0.9168 H         1 <0>         0.4029
     33 H13         6.2637   -1.2318   -2.3819 H         1 <0>         0.3898
@<TRIPOS>BOND
     1    1    2 1
     2    1   21 1
     3    1   22 1
     4    1   23 1
     5    2    3 1
     6    2   10 1
     7    3    4 1
     8    3   24 1
     9    3   25 1
    10    4    8 1
    11    4    5 2
    12    5    6 1
    13    5   26 1
    14    6    7 2
    15    6   27 1
    16    7    8 1
    17    7    9 1
    18   10   11 2
    19   10   12 2
    20   10   13 1
    21   13   18 ar
    22   13   14 ar
    23   14   15 ar
    24   14   28 1
    25   15   16 ar
    26   15   29 1
    27   16   17 ar
    28   16   20 1
    29   17   18 ar
    30   17   19 1
    31   18   30 1
    32   19   31 1
    33   19   32 1
    34   20   33 1
@<TRIPOS>MOLECULE
ZINC49727088
   40    41     0     0     0
SMALL
USER_CHARGES

@<TRIPOS>ATOM
      1 C1          0.0459    1.5188    0.0085 C.3       1 <0>        -0.1609
      2 C2         -0.0011   -0.0105   -0.0048 C.3       1 <0>         0.2517
      3 H1         -1.0390   -0.3423    0.0208 H         1 <0>         0.0984
      4 C3          0.6591   -0.5224   -1.2591 C.2       1 <0>        -0.1510
      5 C4          0.0891   -1.0578   -2.3662 C.2       1 <0>        -0.1545
      6 C5          0.9010   -1.4634   -3.4087 C.2       1 <0>        -0.1554
      7 C6          2.2433   -1.3139   -3.2931 C.2       1 <0>        -0.1834
      8 S1          2.3944   -0.5740   -1.6754 S.3       1 <0>         0.0433
      9 N1          0.7071   -0.5310    1.1672 N.pl3     1 <0>        -0.6682
     10 C7          2.0853   -0.1131    1.4356 C.3       1 <0>         0.1123
     11 C8          0.0668   -1.4280    2.0308 C.ar      1 <0>         0.1443
     12 C9          0.1599   -2.7936    1.8088 C.ar      1 <0>        -0.0947
     13 C10        -0.4728   -3.6776    2.6632 C.ar      1 <0>        -0.0703
     14 C11        -1.1994   -3.2044    3.7400 C.ar      1 <0>        -0.6296
     15 C12        -1.2976   -1.8443    3.9688 C.ar      1 <0>        -0.0994
     16 C13        -0.6619   -0.9508    3.1201 C.ar      1 <0>         0.1959
     17 N2         -0.7555    0.4267    3.3530 N.pl3     1 <0>        -0.8708
     18 S2         -2.0032   -4.3377    4.8236 S.o2      1 <0>         2.6960
     19 O1         -3.0689   -3.6261    5.4378 O.2       1 <0>        -0.9563
     20 O2         -2.2123   -5.5310    4.0808 O.2       1 <0>        -0.9572
     21 N3         -0.9282   -4.7112    6.0266 N.pl3     1 <0>        -1.1200
     22 C14        -0.4843   -3.6734    6.9605 C.3       1 <0>         0.0830
     23 H2          1.0838    1.8506   -0.0172 H         1 <0>         0.0633
     24 H3         -0.4810    1.9061   -0.8636 H         1 <0>         0.0708
     25 H4         -0.4316    1.8890    0.9156 H         1 <0>         0.0640
     26 H5         -0.9834   -1.1661   -2.4327 H         1 <0>         0.1307
     27 H6          0.4724   -1.8934   -4.3019 H         1 <0>         0.1318
     28 H7          3.0196   -1.5718   -3.9983 H         1 <0>         0.1827
     29 H8          2.0820    0.7203    2.1383 H         1 <0>         0.0402
     30 H9          2.6411   -0.9472    1.8639 H         1 <0>         0.0587
     31 H10         2.5584    0.1987    0.5044 H         1 <0>         0.0631
     32 H11         0.7264   -3.1667    0.9684 H         1 <0>         0.1311
     33 H12        -0.3996   -4.7409    2.4887 H         1 <0>         0.1379
     34 H13        -1.8663   -1.4780    4.8107 H         1 <0>         0.1390
     35 H14        -0.3132    1.0506    2.7563 H         1 <0>         0.4011
     36 H15        -1.2626    0.7571    4.1110 H         1 <0>         0.3997
     37 H16        -0.5923   -5.6171    6.1128 H         1 <0>         0.4200
     38 H17         0.0070   -2.8729    6.4074 H         1 <0>         0.0602
     39 H18        -1.3462   -3.2712    7.4930 H         1 <0>         0.0689
     40 H19         0.2163   -4.1040    7.6759 H         1 <0>         0.0838
@<TRIPOS>BOND
     1    1    2 1
     2    1   23 1
     3    1   24 1
     4    1   25 1
     5    2    3 1
     6    2    4 1
     7    2    9 1
     8    4    8 1
     9    4    5 2
    10    5    6 1
    11    5   26 1
    12    6    7 2
    13    6   27 1
    14    7    8 1
    15    7   28 1
    16    9   10 1
    17    9   11 1
    18   10   29 1
    19   10   30 1
    20   10   31 1
    21   11   16 ar
    22   11   12 ar
    23   12   13 ar
    24   12   32 1
    25   13   14 ar
    26   13   33 1
    27   14   15 ar
    28   14   18 1
    29   15   16 ar
    30   15   34 1
    31   16   17 1
    32   17   35 1
    33   17   36 1
    34   18   19 2
    35   18   20 2
    36   18   21 1
    37   21   22 1
    38   21   37 1
    39   22   38 1
    40   22   39 1
    41   22   40 1
@<TRIPOS>MOLECULE
ZINC62222556
   48    49     0     0     0
SMALL
USER_CHARGES

@<TRIPOS>ATOM
      1 C1         -0.0187    1.5258    0.0104 C.3       1 <0>        -0.1525
      2 C2          0.0021   -0.0041    0.0020 C.3       1 <0>        -0.1320
      3 C3          0.7182   -0.4975   -1.2568 C.3       1 <0>         0.1583
      4 H1          0.2444   -0.0644   -2.1377 H         1 <0>         0.0884
      5 C4          0.6303   -2.0233   -1.3286 C.3       1 <0>        -0.1660
      6 N1          2.1249   -0.0911   -1.2094 N.am      1 <0>        -0.7406
      7 C5          2.8241    0.0515   -2.3527 C.2       1 <0>         0.7041
      8 O1          2.2873   -0.1571   -3.4236 O.2       1 <0>        -0.5891
      9 N2          4.1182    0.4254   -2.3091 N.am      1 <0>        -0.7465
     10 C6          4.8782    0.5805   -3.5519 C.3       1 <0>         0.1452
     11 C7          6.3101    1.0084   -3.2241 C.3       1 <0>        -0.0719
     12 C8          7.0918    1.1678   -4.5026 C.2       1 <0>        -0.1843
     13 C9          7.2069    2.3913   -5.0759 C.2       1 <0>        -0.0071
     14 C10         7.9735    2.5125   -6.3173 C.ar      1 <0>        -0.1346
     15 C11         8.1277    3.7481   -6.9548 C.ar      1 <0>        -0.0554
     16 C12         8.8495    3.8277   -8.1118 C.ar      1 <0>        -0.1457
     17 C13         9.4312    2.6930   -8.6611 C.ar      1 <0>        -0.0309
     18 C14         9.2920    1.4655   -8.0506 C.ar      1 <0>        -0.1327
     19 C15         8.5622    1.3601   -6.8709 C.ar      1 <0>         0.1897
     20 N3          8.4077    0.1449   -6.2385 N.am      1 <0>        -0.6292
     21 H2          8.8141   -0.6483   -6.6214 H         1 <0>         0.4152
     22 C16         7.7064    0.0443   -5.0957 C.2       1 <0>         0.5407
     23 O2          7.5947   -1.0454   -4.5612 O.2       1 <0>        -0.5328
     24 C17         9.9280    0.2419   -8.6585 C.3       1 <0>        -0.1199
     25 C18        10.2226    2.8050   -9.9387 C.3       1 <0>        -0.1251
     26 H3          1.0039    1.9031    0.0027 H         1 <0>         0.0538
     27 H4         -0.5459    1.8868   -0.8726 H         1 <0>         0.0557
     28 H5         -0.5289    1.8773    0.9072 H         1 <0>         0.0562
     29 H6          0.5293   -0.3651    0.8851 H         1 <0>         0.0674
     30 H7         -1.0205   -0.3814    0.0098 H         1 <0>         0.0798
     31 H8          1.1041   -2.4564   -0.4477 H         1 <0>         0.0554
     32 H9         -0.4163   -2.3257   -1.3639 H         1 <0>         0.0654
     33 H10         1.1405   -2.3748   -2.2254 H         1 <0>         0.0615
     34 H11         2.5531    0.0754   -0.3551 H         1 <0>         0.3943
     35 H12         4.5464    0.5919   -1.4548 H         1 <0>         0.3958
     36 H13         4.8962   -0.3687   -4.0876 H         1 <0>         0.0700
     37 H14         4.4055    1.3401   -4.1745 H         1 <0>         0.0662
     38 H15         6.2920    1.9575   -2.6885 H         1 <0>         0.0832
     39 H16         6.7828    0.2488   -2.6015 H         1 <0>         0.0894
     40 H17         6.7431    3.2571   -4.6268 H         1 <0>         0.1468
     41 H18         7.6777    4.6352   -6.5342 H         1 <0>         0.1362
     42 H19         8.9684    4.7817   -8.6038 H         1 <0>         0.1310
     43 H20        10.9357    0.1207   -8.2610 H         1 <0>         0.0763
     44 H21         9.3323   -0.6372   -8.4129 H         1 <0>         0.0621
     45 H22         9.9760    0.3574   -9.7413 H         1 <0>         0.0821
     46 H23        11.2675    3.0063   -9.7024 H         1 <0>         0.0785
     47 H24        10.1494    1.8702  -10.4945 H         1 <0>         0.0749
     48 H25         9.8234    3.6194  -10.5432 H         1 <0>         0.0726
@<TRIPOS>BOND
     1    1    2 1
     2    1   26 1
     3    1   27 1
     4    1   28 1
     5    2    3 1
     6    2   29 1
     7    2   30 1
     8    3    4 1
     9    3    5 1
    10    3    6 1
    11    5   31 1
    12    5   32 1
    13    5   33 1
    14    6    7 am
    15    6   34 1
    16    7    8 2
    17    7    9 am
    18    9   10 1
    19    9   35 1
    20   10   11 1
    21   10   36 1
    22   10   37 1
    23   11   12 1
    24   11   38 1
    25   11   39 1
    26   12   22 1
    27   12   13 2
    28   13   14 1
    29   13   40 1
    30   14   19 ar
    31   14   15 ar
    32   15   16 ar
    33   15   41 1
    34   16   17 ar
    35   16   42 1
    36   17   18 ar
    37   17   25 1
    38   18   19 ar
    39   18   24 1
    40   19   20 1
    41   20   21 1
    42   20   22 am
    43   22   23 2
    44   24   43 1
    45   24   44 1
    46   24   45 1
    47   25   46 1
    48   25   47 1
    49   25   48 1
@<TRIPOS>MOLECULE
ZINC66908483
   47    49     0     0     0
SMALL
USER_CHARGES

@<TRIPOS>ATOM
      1 C1         -0.6302    2.2212    0.0543 C.3       1 <0>        -0.1595
      2 C2         -0.3394    0.7191    0.0688 C.3       1 <0>         0.2016
      3 H1          0.2458    0.4538   -0.8118 H         1 <0>         0.1024
      4 C3          0.4374    0.3698    1.3120 C.ar      1 <0>        -0.0478
      5 C4         -0.2064    0.2091    2.5294 C.ar      1 <0>        -0.1694
      6 C5          0.5389   -0.1112    3.6483 C.ar      1 <0>         0.1046
      7 N1          1.8463   -0.2632    3.5670 N.ar      1 <0>        -0.4843
      8 C6          2.4917   -0.1180    2.4263 C.ar      1 <0>         0.1051
      9 C7          1.8121    0.1959    1.2645 C.ar      1 <0>        -0.1611
     10 N2         -1.6025   -0.0230    0.0575 N.am      1 <0>        -0.7413
     11 C8         -2.2198   -0.2849   -1.1116 C.2       1 <0>         0.7065
     12 O1         -1.7284    0.0948   -2.1570 O.2       1 <0>        -0.5874
     13 N3         -3.3818   -0.9676   -1.1220 N.am      1 <0>        -0.7384
     14 C9         -4.0528   -1.2522   -2.3928 C.3       1 <0>         0.1159
     15 C10        -5.4053   -1.9128   -2.1186 C.3       1 <0>         0.1708
     16 C11        -6.2431   -0.9952   -1.2304 C.3       1 <0>        -0.1045
     17 C12        -7.6631   -1.5675   -1.1468 C.3       1 <0>        -0.1179
     18 C13        -8.3329   -1.3941   -2.5085 C.3       1 <0>        -0.0867
     19 C14        -7.4523   -1.9348   -3.6045 C.ar      1 <0>        -0.0533
     20 C15        -6.1071   -2.1693   -3.4265 C.ar      1 <0>        -0.1118
     21 C16        -5.3498   -2.6628   -4.4808 C.ar      1 <0>        -0.1132
     22 C17        -5.9349   -2.9230   -5.7030 C.ar      1 <0>        -0.1229
     23 C18        -7.2859   -2.6913   -5.8804 C.ar      1 <0>        -0.1081
     24 C19        -8.0397   -2.1991   -4.8347 C.ar      1 <0>        -0.1245
     25 O2         -5.1948   -3.1555   -1.4452 O.3       1 <0>        -0.5468
     26 H2          0.3096    2.7733    0.0627 H         1 <0>         0.0695
     27 H3         -1.1920    2.4738   -0.8449 H         1 <0>         0.0704
     28 H4         -1.2153    2.4865    0.9348 H         1 <0>         0.0596
     29 H5         -1.2768    0.3330    2.6025 H         1 <0>         0.1327
     30 H6          0.0449   -0.2381    4.6003 H         1 <0>         0.1580
     31 H7          3.5633   -0.2501    2.3988 H         1 <0>         0.1594
     32 H8          2.3457    0.3086    0.3323 H         1 <0>         0.1389
     33 H9         -1.9945   -0.3258    0.8915 H         1 <0>         0.3960
     34 H10        -3.7738   -1.2704   -0.2880 H         1 <0>         0.4004
     35 H11        -4.2070   -0.3215   -2.9387 H         1 <0>         0.0806
     36 H12        -3.4342   -1.9242   -2.9877 H         1 <0>         0.0702
     37 H13        -5.8060   -0.9506   -0.2329 H         1 <0>         0.0751
     38 H14        -6.2753    0.0049   -1.6627 H         1 <0>         0.0810
     39 H15        -7.6178   -2.6264   -0.8921 H         1 <0>         0.0763
     40 H16        -8.2312   -1.0307   -0.3871 H         1 <0>         0.0712
     41 H17        -9.2822   -1.9299   -2.5129 H         1 <0>         0.0781
     42 H18        -8.5180   -0.3347   -2.6857 H         1 <0>         0.0789
     43 H19        -4.2940   -2.8441   -4.3430 H         1 <0>         0.1231
     44 H20        -5.3393   -3.3068   -6.5181 H         1 <0>         0.1248
     45 H21        -7.7499   -2.8944   -6.8342 H         1 <0>         0.1246
     46 H22        -9.0952   -2.0180   -4.9742 H         1 <0>         0.1237
     47 H23        -4.6620   -3.7886   -1.9455 H         1 <0>         0.3792
@<TRIPOS>BOND
     1    1    2 1
     2    1   26 1
     3    1   27 1
     4    1   28 1
     5    2    3 1
     6    2    4 1
     7    2   10 1
     8    4    9 ar
     9    4    5 ar
    10    5    6 ar
    11    5   29 1
    12    6    7 ar
    13    6   30 1
    14    7    8 ar
    15    8    9 ar
    16    8   31 1
    17    9   32 1
    18   10   11 am
    19   10   33 1
    20   11   12 2
    21   11   13 am
    22   13   14 1
    23   13   34 1
    24   14   15 1
    25   14   35 1
    26   14   36 1
    27   15   20 1
    28   15   16 1
    29   15   25 1
    30   16   17 1
    31   16   37 1
    32   16   38 1
    33   17   18 1
    34   17   39 1
    35   17   40 1
    36   18   19 1
    37   18   41 1
    38   18   42 1
    39   19   24 ar
    40   19   20 ar
    41   20   21 ar
    42   21   22 ar
    43   21   43 1
    44   22   23 ar
    45   22   44 1
    46   23   24 ar
    47   23   45 1
    48   24   46 1
    49   25   47 1
@<TRIPOS>MOLECULE
ZINC12132576
   63    67     0     0     0
SMALL
USER_CHARGES
(1S)-6-[(2R)-3-(1,3-benzodioxol-5-yl)-2-methyl-propyl]-N-methyl-N-(thiazol-4-ylmethyl)-6-azaspiro[2.5]octane-1-carboxamide
@<TRIPOS>ATOM
      1 C1         -1.6417   -3.0413    7.4952 C.3       1 <0>        -0.1696
      2 C2         -2.6900   -2.3042    6.6594 C.3       1 <0>        -0.1155
      3 H1         -2.3321   -1.3003    6.4307 H         1 <0>         0.0962
      4 C3         -3.9981   -2.2120    7.4476 C.3       1 <0>        -0.0644
      5 C4         -3.7887   -1.3558    8.6699 C.ar      1 <0>        -0.0889
      6 C5         -3.3885   -1.9369    9.8589 C.ar      1 <0>        -0.1019
      7 C6         -3.1908   -1.1551   10.9816 C.ar      1 <0>        -0.0981
      8 C7         -3.4032    0.2126   10.9203 C.ar      1 <0>         0.0404
      9 C8         -3.8114    0.7973    9.7241 C.ar      1 <0>         0.0374
     10 C9         -4.0028    0.0082    8.6015 C.ar      1 <0>        -0.0982
     11 O1         -3.9512    2.1408    9.9205 O.3       1 <0>        -0.3069
     12 C10        -3.2323    2.4287   11.1344 C.3       1 <0>         0.2126
     13 O2         -3.2871    1.1899   11.8662 O.3       1 <0>        -0.3048
     14 C11        -2.9326   -3.0683    5.3562 C.3       1 <0>        -0.0044
     15 C12        -1.4145   -1.6722    4.0893 C.3       1 <0>        -0.0052
     16 C13        -0.0274   -1.6411    3.4382 C.3       1 <0>        -0.1139
     17 C14         0.0058   -2.6751    2.3081 C.3       1 <0>        -0.1361
     18 C15        -0.4564   -4.0795    2.7101 C.3       1 <0>        -0.1075
     19 C16        -1.8181   -3.9665    3.4043 C.3       1 <0>        -0.0015
     20 C17         1.1191   -2.5607    1.2688 C.3       1 <0>        -0.1167
     21 C18        -0.3193   -2.1959    0.8944 C.3       1 <0>        -0.1732
     22 H2         -0.8596   -2.8819    0.2421 H         1 <0>         0.1312
     23 C19        -0.6418   -0.7352    0.7117 C.2       1 <0>         0.5365
     24 O3          0.2537    0.0801    0.6474 O.2       1 <0>        -0.5001
     25 N1         -1.9255   -0.3349    0.6197 N.am      1 <0>        -0.6119
     26 C20        -3.0073   -1.3197    0.6974 C.3       1 <0>         0.0740
     27 C21        -2.2390    1.0851    0.4420 C.3       1 <0>         0.1879
     28 C22        -2.2970    1.4065   -1.0292 C.2       1 <0>         0.0295
     29 C23        -3.4786    1.3950   -1.6972 C.2       1 <0>        -0.2037
     30 S1         -2.9316    1.8399   -3.3393 S.3       1 <0>         0.0555
     31 C24        -1.2384    1.9819   -2.9809 C.2       1 <0>         0.0743
     32 N2         -1.2022    1.7000   -1.6990 N.2       1 <0>        -0.4895
     33 H3         -1.3898   -2.4438    8.3713 H         1 <0>         0.0875
     34 H4         -2.0426   -4.0033    7.8146 H         1 <0>         0.0770
     35 H5         -0.7461   -3.2021    6.8952 H         1 <0>         0.0485
     36 H6         -4.7699   -1.7667    6.8199 H         1 <0>         0.0860
     37 H7         -4.3096   -3.2110    7.7528 H         1 <0>         0.0899
     38 H8         -3.2266   -3.0035    9.9096 H         1 <0>         0.1385
     39 H9         -2.8742   -1.6112   11.9080 H         1 <0>         0.1400
     40 H10        -4.3190    0.4589    7.6724 H         1 <0>         0.1340
     41 H11        -2.1994    2.6975   10.9133 H         1 <0>         0.0893
     42 H12        -3.7255    3.2250   11.6919 H         1 <0>         0.1380
     43 H13        -3.7508   -2.6011    4.8080 H         1 <0>         0.1331
     44 H14        -3.1916   -4.1023    5.5841 H         1 <0>         0.1330
     45 H15        -1.4292   -0.9979    4.9456 H         1 <0>         0.1325
     46 H16        -2.1637   -1.3549    3.3639 H         1 <0>         0.1284
     47 H17         0.7312   -1.8867    4.1813 H         1 <0>         0.0992
     48 H18         0.1636   -0.6481    3.0312 H         1 <0>         0.1163
     49 H19        -0.5497   -4.7026    1.8206 H         1 <0>         0.1163
     50 H20         0.2678   -4.5210    3.3948 H         1 <0>         0.0997
     51 H21        -2.1240   -4.9481    3.7662 H         1 <0>         0.1331
     52 H22        -2.5576   -3.5938    2.6955 H         1 <0>         0.1288
     53 H23         1.5256   -3.4869    0.8624 H         1 <0>         0.1154
     54 H24         1.8322   -1.7442    1.3828 H         1 <0>         0.1187
     55 H25        -3.2398   -1.6837   -0.3034 H         1 <0>         0.0624
     56 H26        -2.6941   -2.1548    1.3240 H         1 <0>         0.0633
     57 H27        -3.8928   -0.8534    1.1292 H         1 <0>         0.0777
     58 H28        -3.2034    1.3044    0.9002 H         1 <0>         0.0964
     59 H29        -1.4658    1.6900    0.9158 H         1 <0>         0.1019
     60 H30        -4.4733    1.1786   -1.3363 H         1 <0>         0.1959
     61 H31        -0.4239    2.2373   -3.6425 H         1 <0>         0.2249
     62 N3         -1.6909   -3.0484    4.5573 N.4       1 <0>        -0.3946
     63 H32        -0.9106   -3.3617    5.1466 H         1 <0>         0.4251
@<TRIPOS>BOND
     1    1    2 1
     2    1   33 1
     3    1   34 1
     4    1   35 1
     5    2    3 1
     6    2    4 1
     7    2   14 1
     8    4    5 1
     9    4   36 1
    10    4   37 1
    11    5   10 ar
    12    5    6 ar
    13    6    7 ar
    14    6   38 1
    15    7    8 ar
    16    7   39 1
    17    8   13 1
    18    8    9 ar
    19    9   10 ar
    20    9   11 1
    21   10   40 1
    22   11   12 1
    23   12   13 1
    24   12   41 1
    25   12   42 1
    26   14   43 1
    27   14   44 1
    28   14   62 1
    29   15   16 1
    30   15   45 1
    31   15   46 1
    32   15   62 1
    33   16   17 1
    34   16   47 1
    35   16   48 1
    36   17   21 1
    37   17   18 1
    38   17   20 1
    39   18   19 1
    40   18   49 1
    41   18   50 1
    42   19   51 1
    43   19   52 1
    44   19   62 1
    45   20   21 1
    46   20   53 1
    47   20   54 1
    48   21   22 1
    49   21   23 1
    50   23   24 2
    51   23   25 am
    52   25   26 1
    53   25   27 1
    54   26   55 1
    55   26   56 1
    56   26   57 1
    57   27   28 1
    58   27   58 1
    59   27   59 1
    60   28   32 1
    61   28   29 2
    62   29   30 1
    63   29   60 1
    64   30   31 1
    65   31   32 2
    66   31   61 1
    67   62   63 1
@<TRIPOS>MOLECULE
ZINC24828828
   52    55     0     0     0
SMALL
USER_CHARGES
1-[(5-methyl-2-thienyl)sulfonyl]-4-[[2-(p-tolyl)oxazol-4-yl]methyl]piperazine
@<TRIPOS>ATOM
      1 C1          3.7097   -0.7053   -0.0381 C.3       1 <0>        -0.1307
      2 C2          2.3964    0.0336   -0.0211 C.ar      1 <0>        -0.0433
      3 C3          1.2078   -0.6744   -0.0131 C.ar      1 <0>        -0.1221
      4 C4          0.0021   -0.0041    0.0020 C.ar      1 <0>        -0.0734
      5 C5         -0.0169    1.3915    0.0097 C.ar      1 <0>        -0.0592
      6 C6          1.1858    2.0997    0.0020 C.ar      1 <0>        -0.0565
      7 C7          2.3846    1.4171   -0.0140 C.ar      1 <0>        -0.1250
      8 C8         -1.3052    2.1164    0.0197 C.2       1 <0>         0.2867
      9 N1         -1.4505    3.4204    0.0328 N.2       1 <0>        -0.4732
     10 C9         -2.7613    3.7059    0.0358 C.2       1 <0>        -0.0809
     11 C10        -3.4366    2.5422    0.0329 C.2       1 <0>        -0.0204
     12 O1         -2.5244    1.5502    0.0229 O.3       1 <0>        -0.1792
     13 C11        -3.3693    5.0848    0.0464 C.3       1 <0>         0.0933
     14 N2         -3.4493    5.5741    1.4292 N.4       1 <0>        -0.3987
     15 C12        -4.3861    4.7652    2.2204 C.3       1 <0>        -0.0255
     16 C13        -4.3059    5.1890    3.6908 C.3       1 <0>         0.0963
     17 N3         -4.5182    6.6422    3.7705 N.pl3     1 <0>        -1.0087
     18 C14        -3.7092    7.5122    2.9034 C.3       1 <0>         0.0928
     19 C15        -3.8130    6.9969    1.4640 C.3       1 <0>        -0.0182
     20 S1         -5.6388    7.2818    4.8085 S.o2      1 <0>         2.7257
     21 O2         -5.8236    6.3274    5.8450 O.2       1 <0>        -0.9290
     22 O3         -5.2353    8.6194    5.0678 O.2       1 <0>        -0.9285
     23 C16        -7.1651    7.3768    3.9334 C.2       1 <0>        -0.7955
     24 C17        -8.1533    6.4539    3.8380 C.2       1 <0>         0.0127
     25 C18        -9.2759    6.7490    3.0875 C.2       1 <0>        -0.2101
     26 C19        -9.3555    7.9525    2.4691 C.2       1 <0>        -0.0760
     27 S2         -7.8150    8.7167    2.9487 S.3       1 <0>         0.1642
     28 C20       -10.4603    8.5045    1.6055 C.3       1 <0>        -0.0929
     29 H1          3.5207   -1.7889   -0.0417 H         1 <0>         0.0733
     30 H2          4.2926   -0.4377    0.8556 H         1 <0>         0.0803
     31 H3          4.2744   -0.4286   -0.9406 H         1 <0>         0.0805
     32 H4          1.2238   -1.7543   -0.0190 H         1 <0>         0.1370
     33 H5         -0.9251   -0.5579    0.0075 H         1 <0>         0.1332
     34 H6          1.1779    3.1796    0.0075 H         1 <0>         0.1377
     35 H7          3.3159    1.9639   -0.0207 H         1 <0>         0.1374
     36 H8         -4.5102    2.4249    0.0378 H         1 <0>         0.2257
     37 H9         -2.7430    5.7663   -0.5480 H         1 <0>         0.1514
     38 H10        -4.3795    5.0435   -0.3869 H         1 <0>         0.1437
     39 H11        -5.4095    4.9204    1.8481 H         1 <0>         0.1351
     40 H12        -4.1200    3.7018    2.1290 H         1 <0>         0.1390
     41 H13        -5.0825    4.6642    4.2665 H         1 <0>         0.1372
     42 H14        -3.3148    4.9320    4.0930 H         1 <0>         0.1070
     43 H15        -4.0890    8.5429    2.9613 H         1 <0>         0.1386
     44 H16        -2.6609    7.4886    3.2358 H         1 <0>         0.1093
     45 H17        -3.1276    7.5664    0.8191 H         1 <0>         0.1506
     46 H18        -4.8445    7.1207    1.1025 H         1 <0>         0.1347
     47 H19        -8.0646    5.5021    4.3406 H         1 <0>         0.1473
     48 H20       -10.0775    6.0311    2.9949 H         1 <0>         0.1487
     49 H21       -10.1911    9.5163    1.2681 H         1 <0>         0.0839
     50 H22       -11.3931    8.5479    2.1868 H         1 <0>         0.0984
     51 H23       -10.6030    7.8522    0.7313 H         1 <0>         0.0963
     52 H24        -2.4528    5.4724    1.8838 H         1 <0>         0.4489
@<TRIPOS>BOND
     1    1    2 1
     2    1   29 1
     3    1   30 1
     4    1   31 1
     5    2    7 ar
     6    2    3 ar
     7    3    4 ar
     8    3   32 1
     9    4    5 ar
    10    4   33 1
    11    5    6 ar
    12    5    8 1
    13    6    7 ar
    14    6   34 1
    15    7   35 1
    16    8   12 1
    17    8    9 2
    18    9   10 1
    19   10   11 2
    20   10   13 1
    21   11   12 1
    22   11   36 1
    23   13   14 1
    24   13   37 1
    25   13   38 1
    26   14   19 1
    27   14   15 1
    28   14   52 1
    29   15   16 1
    30   15   39 1
    31   15   40 1
    32   16   17 1
    33   16   41 1
    34   16   42 1
    35   17   18 1
    36   17   20 1
    37   18   19 1
    38   18   43 1
    39   18   44 1
    40   19   45 1
    41   19   46 1
    42   20   21 2
    43   20   22 2
    44   20   23 1
    45   23   27 1
    46   23   24 2
    47   24   25 1
    48   24   47 1
    49   25   26 2
    50   25   48 1
    51   26   27 1
    52   26   28 1
    53   28   49 1
    54   28   50 1
    55   28   51 1
@<TRIPOS>MOLECULE
ZINC38154875
   60    63     0     0     0
SMALL
USER_CHARGES

@<TRIPOS>ATOM
      1 C1          0.2417    1.5519    0.4864 C.3       1 <0>        -0.1410
      2 C2          0.2637    0.0221    0.4999 C.3       1 <0>        -0.0787
      3 C3          1.2787   -0.4745   -0.4972 C.2       1 <0>         0.3866
      4 N1          1.9528    0.3968   -1.1799 N.2       1 <0>        -0.4834
      5 C4          2.8887    0.0284   -2.1013 C.2       1 <0>         0.1999
      6 C5          3.7178    0.9107   -2.9402 C.ar      1 <0>        -0.1517
      7 C6          3.7194    2.3235   -2.9731 C.ar      1 <0>         0.0103
      8 C7          4.5775    2.9789   -3.8331 C.ar      1 <0>        -0.1761
      9 C8          5.4267    2.2541   -4.6510 C.ar      1 <0>         0.2092
     10 N2          5.4152    0.9317   -4.6169 N.ar      1 <0>        -0.4475
     11 C9          4.6142    0.2668   -3.8140 C.ar      1 <0>         0.1155
     12 S1          4.3429   -1.4629   -3.5157 S.3       1 <0>         0.2227
     13 C10         3.0858   -1.3395   -2.2727 C.2       1 <0>        -0.3093
     14 C11         2.3539   -2.2768   -1.5309 C.2       1 <0>         0.5826
     15 O1          2.5298   -3.4739   -1.6840 O.2       1 <0>        -0.5090
     16 N3          1.4492   -1.8142   -0.6358 N.am      1 <0>        -0.5279
     17 C12         0.6600   -2.7488    0.1705 C.3       1 <0>         0.0732
     18 C13        -0.6316   -3.0978   -0.5717 C.3       1 <0>        -0.0347
     19 N4         -1.4229   -4.0349    0.2367 N.4       1 <0>        -0.3824
     20 C14        -1.8532   -3.3713    1.4746 C.3       1 <0>        -0.0208
     21 C15        -2.5538   -4.3860    2.3803 C.3       1 <0>        -0.1880
     22 C16        -2.6036   -4.4629   -0.5253 C.3       1 <0>        -0.0132
     23 C17        -2.1581   -5.2777   -1.7412 C.3       1 <0>        -0.1906
     24 C18         6.3856    2.9420   -5.5899 C.3       1 <0>        -0.0986
     25 C19         5.9620    4.3985   -5.7864 C.3       1 <0>         0.1108
     26 O2          5.7340    4.9830   -4.4992 O.3       1 <0>        -0.3578
     27 C20         4.5604    4.4859   -3.8573 C.3       1 <0>         0.1051
     28 C21         7.0725    5.1638   -6.5090 C.3       1 <0>        -0.1403
     29 C22         4.6743    4.4526   -6.6109 C.3       1 <0>        -0.1839
     30 H1          1.2282    1.9318    0.7522 H         1 <0>         0.0719
     31 H2         -0.0263    1.9027   -0.5102 H         1 <0>         0.0698
     32 H3         -0.4924    1.9111    1.2077 H         1 <0>         0.0691
     33 H4          0.5318   -0.3286    1.4965 H         1 <0>         0.1023
     34 H5         -0.7228   -0.3578    0.2342 H         1 <0>         0.0919
     35 H6          3.0557    2.8847   -2.3321 H         1 <0>         0.1522
     36 H7          1.2371   -3.6573    0.3424 H         1 <0>         0.1259
     37 H8          0.4159   -2.2869    1.1271 H         1 <0>         0.1197
     38 H9         -1.2087   -2.1892   -0.7436 H         1 <0>         0.1372
     39 H10        -0.3875   -3.5596   -1.5283 H         1 <0>         0.1431
     40 H11        -0.9833   -2.9642    1.9899 H         1 <0>         0.1301
     41 H12        -2.5433   -2.5630    1.2326 H         1 <0>         0.1339
     42 H13        -1.9016   -5.2454    2.5358 H         1 <0>         0.0818
     43 H14        -2.7783   -3.9218    3.3407 H         1 <0>         0.1088
     44 H15        -3.4808   -4.7138    1.9098 H         1 <0>         0.0828
     45 H16        -3.2426   -5.0770    0.1092 H         1 <0>         0.1374
     46 H17        -3.1582   -3.5858   -0.8591 H         1 <0>         0.1308
     47 H18        -1.6121   -4.6332   -2.4302 H         1 <0>         0.0792
     48 H19        -1.5110   -6.0921   -1.4155 H         1 <0>         0.0824
     49 H20        -3.0336   -5.6882   -2.2442 H         1 <0>         0.1088
     50 H21         7.3905    2.9105   -5.1689 H         1 <0>         0.1080
     51 H22         6.3806    2.4301   -6.5522 H         1 <0>         0.1072
     52 H23         3.6795    4.8282   -4.4003 H         1 <0>         0.0778
     53 H24         4.5207    4.8629   -2.8354 H         1 <0>         0.1132
     54 H25         7.2560    4.7060   -7.4811 H         1 <0>         0.0778
     55 H26         6.7679    6.2012   -6.6477 H         1 <0>         0.0721
     56 H27         7.9845    5.1294   -5.9132 H         1 <0>         0.0699
     57 H28         3.8848    3.9136   -6.0873 H         1 <0>         0.0588
     58 H29         4.3749    5.4915   -6.7493 H         1 <0>         0.0738
     59 H30         4.8460    3.9913   -7.5834 H         1 <0>         0.0749
     60 H31        -0.8599   -4.8405    0.4652 H         1 <0>         0.4266
@<TRIPOS>BOND
     1    1    2 1
     2    1   30 1
     3    1   31 1
     4    1   32 1
     5    2    3 1
     6    2   33 1
     7    2   34 1
     8    3   16 1
     9    3    4 2
    10    4    5 1
    11    5   13 2
    12    5    6 1
    13    6   11 ar
    14    6    7 ar
    15    7    8 ar
    16    7   35 1
    17    8   27 1
    18    8    9 ar
    19    9   10 ar
    20    9   24 1
    21   10   11 ar
    22   11   12 1
    23   12   13 1
    24   13   14 1
    25   14   15 2
    26   14   16 am
    27   16   17 1
    28   17   18 1
    29   17   36 1
    30   17   37 1
    31   18   19 1
    32   18   38 1
    33   18   39 1
    34   19   20 1
    35   19   22 1
    36   19   60 1
    37   20   21 1
    38   20   40 1
    39   20   41 1
    40   21   42 1
    41   21   43 1
    42   21   44 1
    43   22   23 1
    44   22   45 1
    45   22   46 1
    46   23   47 1
    47   23   48 1
    48   23   49 1
    49   24   25 1
    50   24   50 1
    51   24   51 1
    52   25   26 1
    53   25   28 1
    54   25   29 1
    55   26   27 1
    56   27   52 1
    57   27   53 1
    58   28   54 1
    59   28   55 1
    60   28   56 1
    61   29   57 1
    62   29   58 1
    63   29   59 1
@<TRIPOS>MOLECULE
ZINC43620078
   68    72     0     0     0
SMALL
USER_CHARGES

@<TRIPOS>ATOM
      1 C1         -0.1009    2.2521   -0.3362 C.3       1 <0>         0.0264
      2 O1         -0.1449    0.8449   -0.0918 O.3       1 <0>        -0.2986
      3 C2          0.4648    0.0406   -1.0034 C.ar      1 <0>         0.1492
      4 C3          1.0967    0.5953   -2.1060 C.ar      1 <0>        -0.2272
      5 C4          1.7167   -0.2213   -3.0331 C.ar      1 <0>        -0.0442
      6 C5          1.7096   -1.5934   -2.8653 C.ar      1 <0>        -0.2085
      7 C6          1.0800   -2.1560   -1.7654 C.ar      1 <0>         0.1520
      8 C7          0.4604   -1.3381   -0.8280 C.ar      1 <0>         0.0385
      9 O2         -0.1538   -1.8861    0.2558 O.3       1 <0>        -0.3133
     10 C8         -1.5344   -2.2274    0.1155 C.3       1 <0>         0.0354
     11 O3          1.0732   -3.5061   -1.6014 O.3       1 <0>        -0.2993
     12 C9          1.7341   -4.2843   -2.6012 C.3       1 <0>         0.0248
     13 C10         2.4017    0.3858   -4.2302 C.3       1 <0>         0.1395
     14 N1          3.8021    0.6645   -3.9022 N.am      1 <0>        -0.6005
     15 C11         4.1094    1.9137   -3.2226 C.3       1 <0>         0.1355
     16 H1          3.9021    1.7930   -2.1593 H         1 <0>         0.1039
     17 C12         3.2413    3.0478   -3.7647 C.3       1 <0>        -0.1634
     18 C13         3.6328    3.3462   -5.2134 C.3       1 <0>        -0.0112
     19 N2          5.0473    3.7376   -5.2642 N.4       1 <0>        -0.3757
     20 C14         5.8857    2.6120   -4.8368 C.3       1 <0>        -0.0109
     21 C15         5.5829    2.2785   -3.3957 C.3       1 <0>        -0.1187
     22 H2          5.8281    3.1295   -2.7602 H         1 <0>         0.1211
     23 C16         6.4340    1.0602   -3.0126 C.3       1 <0>        -0.1185
     24 C17         6.1948   -0.0409   -4.0483 C.3       1 <0>        -0.1457
     25 C18         4.7182   -0.2453   -4.2401 C.2       1 <0>         0.5125
     26 O4          4.3422   -1.2730   -4.7628 O.2       1 <0>        -0.5220
     27 C19         5.4009    4.1164   -6.6388 C.3       1 <0>         0.0218
     28 C20         6.8288    4.6994   -6.6972 C.3       1 <0>        -0.0899
     29 C21         6.7715    5.7826   -7.7530 C.ar      1 <0>        -0.1071
     30 C22         7.7902    6.4148   -8.4463 C.ar      1 <0>        -0.0944
     31 C23         7.4954    7.3898   -9.3789 C.ar      1 <0>        -0.1038
     32 C24         6.1792    7.7365   -9.6219 C.ar      1 <0>        -0.1038
     33 C25         5.1621    7.1073   -8.9315 C.ar      1 <0>        -0.0945
     34 C26         5.4558    6.1293   -7.9959 C.ar      1 <0>        -0.1073
     35 C27         4.5388    5.3028   -7.1199 C.3       1 <0>        -0.0902
     36 H3          0.9372    2.5827   -0.3705 H         1 <0>         0.0535
     37 H4         -0.5834    2.4707   -1.2888 H         1 <0>         0.0560
     38 H5         -0.6229    2.7764    0.4643 H         1 <0>         0.1061
     39 H6          1.1041    1.6668   -2.2409 H         1 <0>         0.1295
     40 H7          2.1949   -2.2281   -3.5920 H         1 <0>         0.1420
     41 H8         -2.1075   -1.3317   -0.1242 H         1 <0>         0.0455
     42 H9         -1.6486   -2.9572   -0.6860 H         1 <0>         0.0463
     43 H10        -1.9000   -2.6535    1.0497 H         1 <0>         0.0970
     44 H11         1.6542   -5.3420   -2.3500 H         1 <0>         0.1073
     45 H12         1.2669   -4.1045   -3.5694 H         1 <0>         0.0586
     46 H13         2.7855   -4.0001   -2.6467 H         1 <0>         0.0586
     47 H14         2.3563   -0.3111   -5.0671 H         1 <0>         0.1080
     48 H15         1.9008    1.3145   -4.5033 H         1 <0>         0.0900
     49 H16         2.1927    2.7528   -3.7256 H         1 <0>         0.1232
     50 H17         3.3897    3.9407   -3.1574 H         1 <0>         0.1098
     51 H18         3.4799    2.4552   -5.8224 H         1 <0>         0.1309
     52 H19         3.0165    4.1594   -5.5967 H         1 <0>         0.1378
     53 H20         5.6758    1.7455   -5.4639 H         1 <0>         0.1311
     54 H21         6.9363    2.8843   -4.9376 H         1 <0>         0.1401
     55 H22         7.4885    1.3362   -3.0070 H         1 <0>         0.0959
     56 H23         6.1420    0.7045   -2.0245 H         1 <0>         0.0945
     57 H24         6.6622    0.2419   -4.9916 H         1 <0>         0.1046
     58 H25         6.6347   -0.9730   -3.6936 H         1 <0>         0.1158
     59 H26         5.2988    3.2652   -7.3119 H         1 <0>         0.1513
     60 H27         7.1029    5.1259   -5.7323 H         1 <0>         0.0984
     61 H28         7.5412    3.9268   -6.9862 H         1 <0>         0.1052
     62 H29         8.8186    6.1447   -8.2568 H         1 <0>         0.1282
     63 H30         8.2921    7.8811   -9.9176 H         1 <0>         0.1348
     64 H31         5.9468    8.4990  -10.3506 H         1 <0>         0.1347
     65 H32         4.1342    7.3787   -9.1219 H         1 <0>         0.1280
     66 H33         3.6877    4.9422   -7.6975 H         1 <0>         0.1052
     67 H34         4.1969    5.8916   -6.2687 H         1 <0>         0.0982
     68 H35         5.2008    4.5231   -4.6498 H         1 <0>         0.4219
@<TRIPOS>BOND
     1    1    2 1
     2    1   36 1
     3    1   37 1
     4    1   38 1
     5    2    3 1
     6    3    8 ar
     7    3    4 ar
     8    4    5 ar
     9    4   39 1
    10    5    6 ar
    11    5   13 1
    12    6    7 ar
    13    6   40 1
    14    7    8 ar
    15    7   11 1
    16    8    9 1
    17    9   10 1
    18   10   41 1
    19   10   42 1
    20   10   43 1
    21   11   12 1
    22   12   44 1
    23   12   45 1
    24   12   46 1
    25   13   14 1
    26   13   47 1
    27   13   48 1
    28   14   25 am
    29   14   15 1
    30   15   16 1
    31   15   21 1
    32   15   17 1
    33   17   18 1
    34   17   49 1
    35   17   50 1
    36   18   19 1
    37   18   51 1
    38   18   52 1
    39   19   20 1
    40   19   27 1
    41   19   68 1
    42   20   21 1
    43   20   53 1
    44   20   54 1
    45   21   22 1
    46   21   23 1
    47   23   24 1
    48   23   55 1
    49   23   56 1
    50   24   25 1
    51   24   57 1
    52   24   58 1
    53   25   26 2
    54   27   35 1
    55   27   28 1
    56   27   59 1
    57   28   29 1
    58   28   60 1
    59   28   61 1
    60   29   34 ar
    61   29   30 ar
    62   30   31 ar
    63   30   62 1
    64   31   32 ar
    65   31   63 1
    66   32   33 ar
    67   32   64 1
    68   33   34 ar
    69   33   65 1
    70   34   35 1
    71   35   66 1
    72   35   67 1
@<TRIPOS>MOLECULE
ZINC63375155
   62    66     0     0     0
SMALL
USER_CHARGES

@<TRIPOS>ATOM
      1 C1         -0.0187    1.5258    0.0104 C.3       1 <0>        -0.1541
      2 C2          0.0021   -0.0041    0.0020 C.3       1 <0>        -0.1226
      3 C3          0.7182   -0.4975   -1.2568 C.3       1 <0>        -0.1332
      4 C4          0.7390   -2.0273   -1.2652 C.3       1 <0>         0.1016
      5 N1          1.4247   -2.4998   -2.4705 N.am      1 <0>        -0.5850
      6 C5          0.6323   -2.7274   -3.6674 C.3       1 <0>         0.0919
      7 C6          1.4597   -3.2269   -4.8046 C.2       1 <0>         0.5170
      8 O1          0.8946   -3.4524   -5.8537 O.2       1 <0>        -0.4967
      9 N2          2.7788   -3.4441   -4.7524 N.am      1 <0>        -0.6054
     10 C7          3.4428   -3.9779   -5.9576 C.3       1 <0>         0.1099
     11 C8          4.5412   -2.9991   -6.4090 C.3       1 <0>        -0.0062
     12 H1          4.0903   -2.1104   -6.8505 H         1 <0>         0.1447
     13 C9          5.3203   -2.6230   -5.1734 C.2       1 <0>         0.0626
     14 C10         6.6208   -2.6443   -4.9113 C.ar      1 <0>        -0.1508
     15 C11         7.7877   -2.9298   -5.7618 C.ar      1 <0>         0.0046
     16 C12         9.0008   -2.8837   -5.1504 C.ar      1 <0>        -0.1629
     17 C13         9.1682   -2.5856   -3.7945 C.ar      1 <0>         0.0597
     18 C14         8.1525   -2.3016   -2.9407 C.ar      1 <0>        -0.2090
     19 C15         6.8291   -2.3096   -3.4694 C.ar      1 <0>         0.3368
     20 N3          5.6916   -2.0538   -2.8933 N.pl3     1 <0>        -0.5623
     21 C16         4.6359   -2.1303   -3.9033 C.3       1 <0>         0.0925
     22 H2          4.1885   -1.1494   -4.0642 H         1 <0>         0.1757
     23 C17         3.5731   -3.1766   -3.5520 C.3       1 <0>         0.1734
     24 C18         2.7410   -2.6922   -2.4116 C.2       1 <0>         0.5179
     25 O2          3.3002   -2.4626   -1.3602 O.2       1 <0>        -0.5239
     26 C19         4.2737   -4.4680   -3.1250 C.3       1 <0>        -0.1683
     27 C20         5.4484   -3.6678   -7.4094 C.ar      1 <0>        -0.1470
     28 C21         6.1461   -4.8070   -7.0568 C.ar      1 <0>        -0.0763
     29 C22         6.9788   -5.4206   -7.9740 C.ar      1 <0>        -0.1523
     30 C23         7.1154   -4.8965   -9.2463 C.ar      1 <0>        -0.0574
     31 C24         6.4198   -3.7580   -9.6039 C.ar      1 <0>        -0.2015
     32 C25         5.5793   -3.1433   -8.6869 C.ar      1 <0>         0.1539
     33 O3          4.8895   -2.0263   -9.0380 O.3       1 <0>        -0.3168
     34 C26         5.0730   -1.5424  -10.3700 C.3       1 <0>         0.0234
     35 H3          1.0039    1.9031    0.0027 H         1 <0>         0.0529
     36 H4         -0.5459    1.8868   -0.8726 H         1 <0>         0.0553
     37 H5         -0.5289    1.8773    0.9072 H         1 <0>         0.0605
     38 H6          0.5293   -0.3651    0.8851 H         1 <0>         0.0667
     39 H7         -1.0205   -0.3814    0.0098 H         1 <0>         0.0677
     40 H8          0.1910   -0.1364   -2.1398 H         1 <0>         0.0669
     41 H9          1.7408   -0.1202   -1.2645 H         1 <0>         0.0651
     42 H10         1.2661   -2.3884   -0.3821 H         1 <0>         0.1002
     43 H11        -0.2836   -2.4046   -1.2575 H         1 <0>         0.0935
     44 H12        -0.1424   -3.4611   -3.4446 H         1 <0>         0.1282
     45 H13         0.1569   -1.7913   -3.9603 H         1 <0>         0.1264
     46 H14         3.8894   -4.9454   -5.7286 H         1 <0>         0.0951
     47 H15         2.7094   -4.0948   -6.7554 H         1 <0>         0.1373
     48 H16         7.6858   -3.1629   -6.8114 H         1 <0>         0.1695
     49 H17         9.8808   -3.0882   -5.7422 H         1 <0>         0.1545
     50 H18        10.1736   -2.5814   -3.4001 H         1 <0>         0.1587
     51 H19         8.3398   -2.0781   -1.9008 H         1 <0>         0.1703
     52 H20         4.9246   -4.8112   -3.9291 H         1 <0>         0.0802
     53 H21         4.8686   -4.2801   -2.2312 H         1 <0>         0.0899
     54 H22         3.5270   -5.2325   -2.9104 H         1 <0>         0.0949
     55 H23         6.0410   -5.2183   -6.0638 H         1 <0>         0.1270
     56 H24         7.5239   -6.3107   -7.6962 H         1 <0>         0.1347
     57 H25         7.7669   -5.3774   -9.9609 H         1 <0>         0.1361
     58 H26         6.5269   -3.3490  -10.5977 H         1 <0>         0.1391
     59 H27         4.4669   -0.6487  -10.5187 H         1 <0>         0.1078
     60 H28         6.1238   -1.2990  -10.5266 H         1 <0>         0.0617
     61 H29         4.7681   -2.3105  -11.0809 H         1 <0>         0.0638
     62 H30         5.5646   -1.8480   -1.9539 H         1 <0>         0.4620
@<TRIPOS>BOND
     1    1    2 1
     2    1   35 1
     3    1   36 1
     4    1   37 1
     5    2    3 1
     6    2   38 1
     7    2   39 1
     8    3    4 1
     9    3   40 1
    10    3   41 1
    11    4    5 1
    12    4   42 1
    13    4   43 1
    14    5   24 am
    15    5    6 1
    16    6    7 1
    17    6   44 1
    18    6   45 1
    19    7    8 2
    20    7    9 am
    21    9   23 1
    22    9   10 1
    23   10   11 1
    24   10   46 1
    25   10   47 1
    26   11   12 1
    27   11   13 1
    28   11   27 1
    29   13   21 1
    30   13   14 2
    31   14   19 ar
    32   14   15 ar
    33   15   16 ar
    34   15   48 1
    35   16   17 ar
    36   16   49 1
    37   17   18 ar
    38   17   50 1
    39   18   19 ar
    40   18   51 1
    41   19   20 2
    42   20   21 1
    43   20   62 1
    44   21   22 1
    45   21   23 1
    46   23   24 1
    47   23   26 1
    48   24   25 2
    49   26   52 1
    50   26   53 1
    51   26   54 1
    52   27   32 ar
    53   27   28 ar
    54   28   29 ar
    55   28   55 1
    56   29   30 ar
    57   29   56 1
    58   30   31 ar
    59   30   57 1
    60   31   32 ar
    61   31   58 1
    62   32   33 1
    63   33   34 1
    64   34   59 1
    65   34   60 1
    66   34   61 1
@<TRIPOS>MOLECULE
ZINC09497821
   53    55     0     0     0
SMALL
USER_CHARGES
2-[(5,7-dichloro-2-methyl-8-quinolyl)oxy]-N-(1,1-dioxothiolan-3-yl)-N-sec-butyl-acetamide
@<TRIPOS>ATOM
      1 C1         -0.9242    7.4058   -3.5211 C.3       1 <0>        -0.1588
      2 C2         -2.0403    6.6012   -4.1904 C.3       1 <0>        -0.1380
      3 C3         -2.2299    5.2768   -3.4482 C.3       1 <0>         0.1262
      4 H1         -1.2788    4.7463   -3.4030 H         1 <0>         0.0941
      5 C4         -3.2574    4.4192   -4.1895 C.3       1 <0>        -0.1683
      6 N1         -2.7058    5.5428   -2.0884 N.am      1 <0>        -0.5956
      7 C5         -3.9722    6.2493   -1.8807 C.3       1 <0>         0.1564
      8 H2         -4.4186    6.4835   -2.8471 H         1 <0>         0.1141
      9 C6         -3.7086    7.5539   -1.1105 C.3       1 <0>        -0.1517
     10 C7         -5.0767    8.1192   -0.6328 C.3       1 <0>        -0.5713
     11 S1         -5.9188    6.5663   -0.1090 S.o2      1 <0>         2.3737
     12 O1         -5.6817    6.3565    1.2763 O.2       1 <0>        -0.9224
     13 O2         -7.2536    6.5772   -0.5962 O.2       1 <0>        -0.9390
     14 C8         -4.9373    5.3475   -1.0739 C.3       1 <0>        -0.6003
     15 C9         -1.9785    5.1375   -1.0286 C.2       1 <0>         0.5223
     16 O3         -2.3724    5.3577    0.0971 O.2       1 <0>        -0.4966
     17 C10        -0.6757    4.4108   -1.2423 C.3       1 <0>         0.0505
     18 O4         -0.0968    4.0884    0.0238 O.3       1 <0>        -0.2798
     19 C11         1.0900    3.4263    0.0091 C.ar      1 <0>         0.1338
     20 C12         2.2747    4.1277    0.0011 C.ar      1 <0>        -0.0313
     21 C13         3.4986    3.4625   -0.0136 C.ar      1 <0>        -0.0928
     22 C14         3.5553    2.1010   -0.0210 C.ar      1 <0>        -0.0019
     23 C15         2.3670    1.3514   -0.0132 C.ar      1 <0>        -0.0947
     24 C16         1.1163    2.0169    0.0022 C.ar      1 <0>         0.1383
     25 N2         -0.0157    1.3067    0.0092 N.ar      1 <0>        -0.4576
     26 C17         0.0021   -0.0041    0.0020 C.ar      1 <0>         0.1725
     27 C18         1.1969   -0.7205   -0.0132 C.ar      1 <0>        -0.1568
     28 C19         2.3901   -0.0560   -0.0210 C.ar      1 <0>        -0.0495
     29 C20        -1.3041   -0.7557    0.0099 C.3       1 <0>        -0.1117
     30 Cl1         5.0924    1.2944   -0.0404 Cl        1 <0>        -0.0376
     31 Cl2         2.2430    5.8634    0.0089 Cl        1 <0>        -0.0288
     32 H3         -0.7892    8.3493   -4.0498 H         1 <0>         0.0609
     33 H4         -1.1924    7.6058   -2.4837 H         1 <0>         0.0571
     34 H5          0.0041    6.8354   -3.5529 H         1 <0>         0.0549
     35 H6         -1.7721    6.4012   -5.2278 H         1 <0>         0.0813
     36 H7         -2.9686    7.1716   -4.1586 H         1 <0>         0.0716
     37 H8         -4.2085    4.9498   -4.2347 H         1 <0>         0.0647
     38 H9         -2.9034    4.2213   -5.2012 H         1 <0>         0.0742
     39 H10        -3.3925    3.4757   -3.6608 H         1 <0>         0.0645
     40 H11        -3.0731    7.3506   -0.2486 H         1 <0>         0.1095
     41 H12        -3.2208    8.2758   -1.7654 H         1 <0>         0.1020
     42 H13        -4.9495    8.8014    0.2077 H         1 <0>         0.1444
     43 H14        -5.6117    8.6008   -1.4513 H         1 <0>         0.1394
     44 H15        -5.5816    4.7759   -1.7420 H         1 <0>         0.1424
     45 H16        -4.3827    4.6849   -0.4096 H         1 <0>         0.1547
     46 H17         0.0082    5.0481   -1.8027 H         1 <0>         0.0857
     47 H18        -0.8589    3.4936   -1.8021 H         1 <0>         0.0888
     48 H19         4.4151    4.0337   -0.0196 H         1 <0>         0.1564
     49 H20         1.1796   -1.8003   -0.0185 H         1 <0>         0.1476
     50 H21         3.3256   -0.5955   -0.0325 H         1 <0>         0.1503
     51 H22        -1.6284   -0.9314   -1.0158 H         1 <0>         0.0856
     52 H23        -1.1705   -1.7110    0.5174 H         1 <0>         0.0826
     53 H24        -2.0581   -0.1683    0.5338 H         1 <0>         0.0841
@<TRIPOS>BOND
     1    1    2 1
     2    1   32 1
     3    1   33 1
     4    1   34 1
     5    2    3 1
     6    2   35 1
     7    2   36 1
     8    3    4 1
     9    3    5 1
    10    3    6 1
    11    5   37 1
    12    5   38 1
    13    5   39 1
    14    6    7 1
    15    6   15 am
    16    7    8 1
    17    7   14 1
    18    7    9 1
    19    9   10 1
    20    9   40 1
    21    9   41 1
    22   10   11 1
    23   10   42 1
    24   10   43 1
    25   11   12 2
    26   11   13 2
    27   11   14 1
    28   14   44 1
    29   14   45 1
    30   15   16 2
    31   15   17 1
    32   17   18 1
    33   17   46 1
    34   17   47 1
    35   18   19 1
    36   19   24 ar
    37   19   20 ar
    38   20   21 ar
    39   20   31 1
    40   21   22 ar
    41   21   48 1
    42   22   23 ar
    43   22   30 1
    44   23   28 ar
    45   23   24 ar
    46   24   25 ar
    47   25   26 ar
    48   26   27 ar
    49   26   29 1
    50   27   28 ar
    51   27   49 1
    52   28   50 1
    53   29   51 1
    54   29   52 1
    55   29   53 1
@<TRIPOS>MOLECULE
ZINC12247626
   58    61     0     0     0
SMALL
USER_CHARGES
1-[(3S)-3-[5-methyl-2-(3-pyridylmethylsulfanyl)pyrimidin-4-yl]-1-piperidyl]-3-(4-methylthiazol-5-yl)propan-1-one
@<TRIPOS>ATOM
      1 C1          8.2028   -1.9410   -0.8095 C.3       1 <0>        -0.1089
      2 C2          6.8885   -1.2413   -1.0422 C.ar      1 <0>        -0.1914
      3 C3          6.1085   -0.8261    0.0262 C.ar      1 <0>         0.1656
      4 N1          4.9627   -0.2104   -0.2124 N.ar      1 <0>        -0.5243
      5 C4          4.5532    0.0011   -1.4554 C.ar      1 <0>         0.2890
      6 N2          5.2752   -0.3832   -2.4984 N.ar      1 <0>        -0.4906
      7 C5          6.4334   -0.9993   -2.3287 C.ar      1 <0>         0.1975
      8 C6          7.2483   -1.4325   -3.5200 C.3       1 <0>        -0.0554
      9 H1          8.1621   -1.9187   -3.1783 H         1 <0>         0.1006
     10 C7          6.4339   -2.4132   -4.3668 C.3       1 <0>        -0.1091
     11 C8          7.2726   -2.8791   -5.5591 C.3       1 <0>        -0.1345
     12 C9          7.6308   -1.6705   -6.4296 C.3       1 <0>         0.1029
     13 N3          8.2865   -0.6597   -5.5887 N.am      1 <0>        -0.6119
     14 C10         7.6069   -0.2074   -4.3670 C.3       1 <0>         0.1249
     15 C11         9.4888   -0.1563   -5.9315 C.2       1 <0>         0.5182
     16 O1         10.0197    0.6777   -5.2290 O.2       1 <0>        -0.5359
     17 C12        10.1734   -0.6296   -7.1878 C.3       1 <0>        -0.1358
     18 C13        11.5126    0.0940   -7.3424 C.3       1 <0>        -0.0132
     19 C14        12.1973   -0.3793   -8.5987 C.2       1 <0>        -0.1774
     20 C15        12.1151    0.1023   -9.8652 C.2       1 <0>         0.0547
     21 N4         12.8223   -0.4875  -10.8061 N.2       1 <0>        -0.5038
     22 C16        13.5843   -1.5238  -10.5423 C.2       1 <0>         0.0686
     23 S1         13.3366   -1.7353   -8.8365 S.3       1 <0>         0.0341
     24 C17        11.2390    1.2859  -10.1856 C.3       1 <0>        -0.0840
     25 S2          3.0163    0.8187   -1.7275 S.3       1 <0>         0.0176
     26 C18         2.4992    1.0940   -0.0149 C.3       1 <0>        -0.0630
     27 C19         1.1689    1.8018    0.0006 C.ar      1 <0>        -0.1366
     28 C20        -0.0126    1.0758    0.0080 C.ar      1 <0>        -0.0561
     29 C21        -1.2130    1.7692    0.0173 C.ar      1 <0>        -0.1710
     30 C22        -1.1924    3.1512    0.0299 C.ar      1 <0>         0.1062
     31 N5         -0.0496    3.8088    0.0225 N.ar      1 <0>        -0.4820
     32 C23         1.1109    3.1824    0.0081 C.ar      1 <0>         0.1203
     33 H2          9.0027   -1.2026   -0.7537 H         1 <0>         0.0793
     34 H3          8.1570   -2.4984    0.1260 H         1 <0>         0.0752
     35 H4          8.3993   -2.6280   -1.6326 H         1 <0>         0.0747
     36 H5          6.4346   -0.9998    1.0410 H         1 <0>         0.1726
     37 H6          6.1569   -3.2746   -3.7590 H         1 <0>         0.0673
     38 H7          5.5322   -1.9189   -4.7283 H         1 <0>         0.0791
     39 H8          8.1864   -3.3514   -5.1987 H         1 <0>         0.0700
     40 H9          6.7004   -3.5953   -6.1487 H         1 <0>         0.0835
     41 H10         8.3094   -1.9807   -7.2242 H         1 <0>         0.0890
     42 H11         6.7233   -1.2513   -6.8642 H         1 <0>         0.0758
     43 H12         6.6977    0.3315   -4.6334 H         1 <0>         0.0808
     44 H13         8.2695    0.4471   -3.8007 H         1 <0>         0.0933
     45 H14        10.3461   -1.7040   -7.1248 H         1 <0>         0.0979
     46 H15         9.5419   -0.4130   -8.0494 H         1 <0>         0.0993
     47 H16        11.3400    1.1684   -7.4054 H         1 <0>         0.0989
     48 H17        12.1442   -0.1226   -6.4808 H         1 <0>         0.0899
     49 H18        14.2053   -2.0978  -11.2140 H         1 <0>         0.2234
     50 H19        11.8143    2.2048  -10.0729 H         1 <0>         0.0756
     51 H20        10.8804    1.2053  -11.2117 H         1 <0>         0.0755
     52 H21        10.3887    1.3037   -9.5039 H         1 <0>         0.0730
     53 H22         3.2427    1.7067    0.4950 H         1 <0>         0.1085
     54 H23         2.4067    0.1353    0.4953 H         1 <0>         0.1067
     55 H24         0.0021   -0.0041    0.0020 H         1 <0>         0.1379
     56 H25        -2.1523    1.2362    0.0191 H         1 <0>         0.1398
     57 H26        -2.1232    3.6988    0.0417 H         1 <0>         0.1595
     58 H27         2.0266    3.7551    0.0024 H         1 <0>         0.1582
@<TRIPOS>BOND
     1    1    2 1
     2    1   33 1
     3    1   34 1
     4    1   35 1
     5    2    7 ar
     6    2    3 ar
     7    3    4 ar
     8    3   36 1
     9    4    5 ar
    10    5    6 ar
    11    5   25 1
    12    6    7 ar
    13    7    8 1
    14    8    9 1
    15    8   14 1
    16    8   10 1
    17   10   11 1
    18   10   37 1
    19   10   38 1
    20   11   12 1
    21   11   39 1
    22   11   40 1
    23   12   13 1
    24   12   41 1
    25   12   42 1
    26   13   14 1
    27   13   15 am
    28   14   43 1
    29   14   44 1
    30   15   16 2
    31   15   17 1
    32   17   18 1
    33   17   45 1
    34   17   46 1
    35   18   19 1
    36   18   47 1
    37   18   48 1
    38   19   23 1
    39   19   20 2
    40   20   21 1
    41   20   24 1
    42   21   22 2
    43   22   23 1
    44   22   49 1
    45   24   50 1
    46   24   51 1
    47   24   52 1
    48   25   26 1
    49   26   27 1
    50   26   53 1
    51   26   54 1
    52   27   32 ar
    53   27   28 ar
    54   28   29 ar
    55   28   55 1
    56   29   30 ar
    57   29   56 1
    58   30   31 ar
    59   30   57 1
    60   31   32 ar
    61   32   58 1
@<TRIPOS>MOLECULE
ZINC23491555
   60    62     0     0     0
SMALL
USER_CHARGES
N-[(2-chlorophenyl)methyl]-3-ethoxy-N-methyl-4-[2-oxo-2-(1-piperidyl)ethoxy]benzamide
@<TRIPOS>ATOM
      1 C1          2.0674    4.8583    0.1037 C.3       1 <0>        -0.1535
      2 C2          2.1958    3.6684    1.0569 C.3       1 <0>         0.0495
      3 O1          1.2266    3.7872    2.1002 O.3       1 <0>        -0.2988
      4 C3          1.2062    2.8034    3.0390 C.ar      1 <0>         0.1013
      5 C4          2.0974    1.7511    2.9563 C.ar      1 <0>        -0.1153
      6 C5          2.0740    0.7422    3.9228 C.ar      1 <0>        -0.1319
      7 C6          1.1496    0.8021    4.9685 C.ar      1 <0>        -0.1232
      8 C7          0.2634    1.8544    5.0453 C.ar      1 <0>        -0.1854
      9 C8          0.2899    2.8597    4.0880 C.ar      1 <0>         0.1256
     10 O2         -0.5821    3.8974    4.1709 O.3       1 <0>        -0.2735
     11 C9         -1.4937    3.8924    5.2714 C.3       1 <0>         0.0369
     12 C10        -2.3764    5.1117    5.1981 C.2       1 <0>         0.5182
     13 O3         -2.2383    5.9067    4.2926 O.2       1 <0>        -0.5101
     14 N1         -3.3191    5.3187    6.1387 N.am      1 <0>        -0.6110
     15 C11        -3.5024    4.3615    7.2382 C.3       1 <0>         0.1008
     16 C12        -3.4253    5.1253    8.5689 C.3       1 <0>        -0.1370
     17 C13        -4.4434    6.2678    8.5543 C.3       1 <0>        -0.1225
     18 C14        -4.1061    7.2397    7.4213 C.3       1 <0>        -0.1362
     19 C15        -4.1872    6.5027    6.0807 C.3       1 <0>         0.1098
     20 C16         3.0244   -0.3841    3.8393 C.2       1 <0>         0.5682
     21 O4          3.5346   -0.6714    2.7737 O.2       1 <0>        -0.5299
     22 N2          3.3266   -1.0941    4.9443 N.am      1 <0>        -0.6045
     23 C17         2.5450   -0.9101    6.1697 C.3       1 <0>         0.0571
     24 C18         4.4367   -2.0498    4.9201 C.3       1 <0>         0.1509
     25 C19         5.7332   -1.3200    5.1601 C.ar      1 <0>        -0.1022
     26 C20         6.5305   -0.9573    4.0907 C.ar      1 <0>        -0.0833
     27 C21         7.7176   -0.2842    4.3104 C.ar      1 <0>        -0.1164
     28 C22         8.1129    0.0184    5.6003 C.ar      1 <0>        -0.1020
     29 C23         7.3191   -0.3483    6.6705 C.ar      1 <0>        -0.1141
     30 C24         6.1283   -1.0180    6.4509 C.ar      1 <0>        -0.0215
     31 Cl1         5.1310   -1.4795    7.7948 Cl        1 <0>        -0.0686
     32 H1          2.8135    4.7669   -0.6994 H         1 <0>         0.0802
     33 H2          2.2385    5.7926    0.6585 H         1 <0>         0.0679
     34 H3          1.0580    4.8708   -0.3332 H         1 <0>         0.0684
     35 H4          2.0247    2.7341    0.5021 H         1 <0>         0.0648
     36 H5          3.2052    3.6558    1.4938 H         1 <0>         0.0628
     37 H6          2.8108    1.7085    2.1466 H         1 <0>         0.1465
     38 H7          1.1293    0.0234    5.7165 H         1 <0>         0.1723
     39 H8         -0.4505    1.8997    5.8544 H         1 <0>         0.1399
     40 H9         -2.1158    2.9862    5.2281 H         1 <0>         0.0959
     41 H10        -0.9291    3.9047    6.2153 H         1 <0>         0.0957
     42 H11        -4.4844    3.8753    7.1412 H         1 <0>         0.0768
     43 H12        -2.7103    3.5994    7.1968 H         1 <0>         0.0829
     44 H13        -3.6521    4.4398    9.3988 H         1 <0>         0.0795
     45 H14        -2.4128    5.5353    8.6983 H         1 <0>         0.0693
     46 H15        -5.4520    5.8581    8.3969 H         1 <0>         0.0667
     47 H16        -4.4101    6.8009    9.5159 H         1 <0>         0.0688
     48 H17        -4.8240    8.0731    7.4273 H         1 <0>         0.0789
     49 H18        -3.0883    7.6315    7.5651 H         1 <0>         0.0681
     50 H19        -3.8500    7.1652    5.2699 H         1 <0>         0.0960
     51 H20        -5.2239    6.1883    5.8901 H         1 <0>         0.0712
     52 H21         2.9373   -1.5701    6.9574 H         1 <0>         0.0842
     53 H22         1.4917   -1.1592    5.9736 H         1 <0>         0.0798
     54 H23         2.6192    0.1371    6.4981 H         1 <0>         0.0752
     55 H24         4.2889   -2.8034    5.7076 H         1 <0>         0.0964
     56 H25         4.4716   -2.5465    3.9392 H         1 <0>         0.0994
     57 H26         6.2243   -1.1970    3.0832 H         1 <0>         0.1372
     58 H27         8.3386    0.0020    3.4744 H         1 <0>         0.1307
     59 H28         9.0423    0.5411    5.7716 H         1 <0>         0.1330
     60 H29         7.6284   -0.1126    7.6781 H         1 <0>         0.1341
@<TRIPOS>BOND
     1    1    2 1
     2    1   32 1
     3    1   33 1
     4    1   34 1
     5    2    3 1
     6    2   35 1
     7    2   36 1
     8    3    4 1
     9    4    9 ar
    10    4    5 ar
    11    5    6 ar
    12    5   37 1
    13    6    7 ar
    14    6   20 1
    15    7    8 ar
    16    7   38 1
    17    8    9 ar
    18    8   39 1
    19    9   10 1
    20   10   11 1
    21   11   12 1
    22   11   40 1
    23   11   41 1
    24   12   13 2
    25   12   14 am
    26   14   19 1
    27   14   15 1
    28   15   16 1
    29   15   42 1
    30   15   43 1
    31   16   17 1
    32   16   44 1
    33   16   45 1
    34   17   18 1
    35   17   46 1
    36   17   47 1
    37   18   19 1
    38   18   48 1
    39   18   49 1
    40   19   50 1
    41   19   51 1
    42   20   21 2
    43   20   22 am
    44   22   23 1
    45   22   24 1
    46   23   52 1
    47   23   53 1
    48   23   54 1
    49   24   25 1
    50   24   55 1
    51   24   56 1
    52   25   30 ar
    53   25   26 ar
    54   26   27 ar
    55   26   57 1
    56   27   28 ar
    57   27   58 1
    58   28   29 ar
    59   28   59 1
    60   29   30 ar
    61   29   60 1
    62   30   31 1
@<TRIPOS>MOLECULE
ZINC39520101
   57    59     0     0     0
SMALL
USER_CHARGES

@<TRIPOS>ATOM
      1 C1          0.4381   -0.5167   -0.9810 C.3       1 <0>        -0.1498
      2 C2         -0.6086    0.1252   -0.0682 C.3       1 <0>        -0.5752
      3 C3         -0.6940    1.6237   -0.3651 C.3       1 <0>        -0.1428
      4 S1         -2.2244   -0.6434   -0.3671 S.o2      1 <0>         2.4148
      5 O1         -3.1595   -0.0958    0.5521 O.2       1 <0>        -0.9162
      6 O2         -2.5033   -0.5767   -1.7588 O.2       1 <0>        -0.9311
      7 C4         -1.9314   -2.3776    0.0770 C.3       1 <0>        -0.5921
      8 H1         -1.1317   -2.7969   -0.5336 H         1 <0>         0.1450
      9 C5         -1.5859   -2.5010    1.5821 C.3       1 <0>        -0.1130
     10 C6         -1.9714   -3.9669    1.9032 C.3       1 <0>        -0.1492
     11 C7         -3.2479   -4.2099    1.0762 C.3       1 <0>         0.1566
     12 C8         -3.2252   -3.2030   -0.0865 C.3       1 <0>        -0.1706
     13 C9         -3.2429   -5.6355    0.5283 C.3       1 <0>        -0.5959
     14 H2         -3.1963   -6.3431    1.3560 H         1 <0>         0.1548
     15 C10        -4.5238   -5.8743   -0.2768 C.3       1 <0>        -0.1163
     16 C11        -5.7366   -5.6059    0.6185 C.3       1 <0>        -0.1014
     17 C12        -5.6689   -4.1704    1.1448 C.3       1 <0>         0.0284
     18 N1         -4.4301   -3.9876    1.9126 N.3       1 <0>        -0.4747
     19 S2         -4.3817   -2.3915    2.6645 S.3       1 <0>        -0.0438
     20 C13        -5.9094   -2.3194    3.6400 C.3       1 <0>        -0.1439
     21 S3         -1.7999   -5.8656   -0.5466 S.o2      1 <0>         2.5947
     22 O3         -1.8848   -5.0017   -1.6716 O.2       1 <0>        -0.9137
     23 O4         -0.6133   -5.9253    0.2330 O.2       1 <0>        -0.9406
     24 O5         -1.9587   -7.2666   -1.1199 O.3       1 <0>        -0.6571
     25 C14        -1.6646   -8.2602   -0.2407 C.ar      1 <0>         0.0544
     26 C15        -0.3646   -8.7334   -0.1364 C.ar      1 <0>        -0.0880
     27 C16        -0.0681   -9.7432    0.7585 C.ar      1 <0>        -0.1003
     28 C17        -1.0657  -10.2826    1.5494 C.ar      1 <0>        -0.0970
     29 C18        -2.3622   -9.8131    1.4469 C.ar      1 <0>        -0.1008
     30 C19        -2.6626   -8.7992    0.5580 C.ar      1 <0>        -0.1287
     31 H3          1.4090   -0.0548   -0.8014 H         1 <0>         0.0828
     32 H4          0.4989   -1.5842   -0.7695 H         1 <0>         0.0696
     33 H5          0.1522   -0.3683   -2.0223 H         1 <0>         0.0793
     34 H6         -0.3227   -0.0232    0.9731 H         1 <0>         0.1387
     35 H7         -0.9010    1.7730   -1.4248 H         1 <0>         0.0735
     36 H8         -1.4947    2.0665    0.2274 H         1 <0>         0.0738
     37 H9          0.2528    2.0993   -0.1093 H         1 <0>         0.0837
     38 H10        -0.5214   -2.3362    1.7487 H         1 <0>         0.0965
     39 H11        -2.1825   -1.8064    2.1734 H         1 <0>         0.1063
     40 H12        -1.1791   -4.6472    1.5909 H         1 <0>         0.1066
     41 H13        -2.1781   -4.0830    2.9671 H         1 <0>         0.1101
     42 H14        -4.0954   -2.5489   -0.0307 H         1 <0>         0.0982
     43 H15        -3.2141   -3.7304   -1.0403 H         1 <0>         0.1215
     44 H16        -4.5468   -5.2003   -1.1332 H         1 <0>         0.0880
     45 H17        -4.5486   -6.9072   -0.6240 H         1 <0>         0.0873
     46 H18        -6.6516   -5.7390    0.0412 H         1 <0>         0.0854
     47 H19        -5.7306   -6.3017    1.4575 H         1 <0>         0.0800
     48 H20        -5.6822   -3.4749    0.3056 H         1 <0>         0.0575
     49 H21        -6.5271   -3.9788    1.7889 H         1 <0>         0.0882
     50 H22        -6.7683   -2.4362    2.9791 H         1 <0>         0.0749
     51 H23        -5.9073   -3.1214    4.3782 H         1 <0>         0.0798
     52 H24        -5.9706   -1.3574    4.1488 H         1 <0>         0.1075
     53 H25         0.4149   -8.3129   -0.7544 H         1 <0>         0.1413
     54 H26         0.9437  -10.1119    0.8401 H         1 <0>         0.1422
     55 H27        -0.8320  -11.0723    2.2481 H         1 <0>         0.1383
     56 H28        -3.1397  -10.2363    2.0656 H         1 <0>         0.1415
     57 H29        -3.6746   -8.4297    0.4816 H         1 <0>         0.1408
@<TRIPOS>BOND
     1    1    2 1
     2    1   31 1
     3    1   32 1
     4    1   33 1
     5    2    3 1
     6    2    4 1
     7    2   34 1
     8    3   35 1
     9    3   36 1
    10    3   37 1
    11    4    5 2
    12    4    6 2
    13    4    7 1
    14    7    8 1
    15    7   12 1
    16    7    9 1
    17    9   10 1
    18    9   38 1
    19    9   39 1
    20   10   11 1
    21   10   40 1
    22   10   41 1
    23   11   18 1
    24   11   12 1
    25   11   13 1
    26   12   42 1
    27   12   43 1
    28   13   14 1
    29   13   15 1
    30   13   21 1
    31   15   16 1
    32   15   44 1
    33   15   45 1
    34   16   17 1
    35   16   46 1
    36   16   47 1
    37   17   18 1
    38   17   48 1
    39   17   49 1
    40   18   19 1
    41   19   20 1
    42   20   50 1
    43   20   51 1
    44   20   52 1
    45   21   22 2
    46   21   23 2
    47   21   24 1
    48   24   25 1
    49   25   30 ar
    50   25   26 ar
    51   26   27 ar
    52   26   53 1
    53   27   28 ar
    54   27   54 1
    55   28   29 ar
    56   28   55 1
    57   29   30 ar
    58   29   56 1
    59   30   57 1
@<TRIPOS>MOLECULE
ZINC10798557
   61    63     0     0     0
SMALL
USER_CHARGES

@<TRIPOS>ATOM
      1 C1         -0.0187    1.5258    0.0104 C.3       1 <0>        -0.1482
      2 C2          0.0021   -0.0041    0.0020 C.3       1 <0>        -0.0938
      3 C3         -1.4338   -0.5335    0.0112 C.3       1 <0>        -0.1305
      4 C4         -1.4095   -2.0646   -0.0322 C.3       1 <0>         0.1107
      5 N1         -0.5782   -2.5560    1.0751 N.am      1 <0>        -0.6014
      6 C5          0.7913   -2.0416    1.2125 C.3       1 <0>         0.0983
      7 C6          0.7423   -0.5108    1.2420 C.3       1 <0>        -0.1309
      8 C7         -1.0626   -3.4610    1.9484 C.2       1 <0>         0.5410
      9 O1         -2.1949   -3.8776    1.8244 O.2       1 <0>        -0.5208
     10 C8         -0.1975   -3.9553    3.0789 C.3       1 <0>        -0.1231
     11 H1          0.8378   -4.0179    2.7437 H         1 <0>         0.1258
     12 C9         -0.2941   -2.9841    4.2573 C.3       1 <0>        -0.1454
     13 S1         -0.7644   -5.5975    3.6008 S.3       1 <0>         0.1300
     14 C10         0.4201   -6.0939    4.8071 C.2       1 <0>         0.0407
     15 N2          1.4786   -5.4465    5.2552 N.2       1 <0>        -0.3026
     16 N3          2.2805   -6.0250    6.2118 N.2       1 <0>        -0.3028
     17 C11         1.9870   -7.2243    6.6763 C.2       1 <0>         0.0401
     18 S2          0.5043   -7.6051    5.7559 S.3       1 <0>         0.0777
     19 S3          2.8285   -8.1894    7.8868 S.3       1 <0>         0.1321
     20 C12         4.2321   -7.1506    8.3781 C.3       1 <0>        -0.1237
     21 H2          4.8069   -6.8747    7.4940 H         1 <0>         0.1266
     22 C13         3.7144   -5.8854    9.0652 C.3       1 <0>        -0.1465
     23 C14         5.1135   -7.9154    9.3317 C.2       1 <0>         0.5410
     24 O2          4.6718   -8.8734    9.9300 O.2       1 <0>        -0.5212
     25 N4          6.3926   -7.5346    9.5197 N.am      1 <0>        -0.6014
     26 C15         6.9403   -6.3725    8.8068 C.3       1 <0>         0.0993
     27 C16         8.2193   -6.7982    8.0791 C.3       1 <0>        -0.1323
     28 C17         9.1852   -7.4326    9.0824 C.3       1 <0>        -0.0936
     29 C18         8.5411   -8.6780    9.6958 C.3       1 <0>        -0.1303
     30 C19         7.2641   -8.2701   10.4461 C.3       1 <0>         0.1108
     31 C20        10.4778   -7.8278    8.3656 C.3       1 <0>        -0.1484
     32 H3          1.0039    1.9031    0.0027 H         1 <0>         0.0566
     33 H4         -0.5459    1.8868   -0.8726 H         1 <0>         0.0571
     34 H5         -0.5289    1.8773    0.9072 H         1 <0>         0.0550
     35 H6          0.5127   -0.3554   -0.8946 H         1 <0>         0.0738
     36 H7         -1.9375   -0.2032    0.9196 H         1 <0>         0.0685
     37 H8         -1.9673   -0.1533   -0.8600 H         1 <0>         0.0791
     38 H9         -2.4239   -2.4493    0.0738 H         1 <0>         0.0965
     39 H10        -0.9879   -2.3966   -0.9810 H         1 <0>         0.0726
     40 H11         1.2290   -2.4111    2.1398 H         1 <0>         0.0884
     41 H12         1.3923   -2.3717    0.3653 H         1 <0>         0.0765
     42 H13         1.7577   -0.1143    1.2468 H         1 <0>         0.0797
     43 H14         0.2181   -0.1807    2.1388 H         1 <0>         0.0697
     44 H15        -1.3293   -2.9215    4.5926 H         1 <0>         0.0768
     45 H16         0.3317   -3.3417    5.0750 H         1 <0>         0.0851
     46 H17         0.0466   -1.9974    3.9437 H         1 <0>         0.0756
     47 H18         4.5578   -5.2612    9.3604 H         1 <0>         0.0761
     48 H19         3.0769   -5.3323    8.3754 H         1 <0>         0.0849
     49 H20         3.1397   -6.1614    9.9493 H         1 <0>         0.0766
     50 H21         6.2106   -6.0112    8.0822 H         1 <0>         0.0881
     51 H22         7.1719   -5.5819    9.5205 H         1 <0>         0.0773
     52 H23         7.9724   -7.5232    7.3035 H         1 <0>         0.0693
     53 H24         8.6877   -5.9248    7.6254 H         1 <0>         0.0798
     54 H25         9.4123   -6.7153    9.8711 H         1 <0>         0.0738
     55 H26         8.2912   -9.3853    8.9050 H         1 <0>         0.0689
     56 H27         9.2386   -9.1424   10.3929 H         1 <0>         0.0789
     57 H28         7.5216   -7.6311   11.2908 H         1 <0>         0.0726
     58 H29         6.7482   -9.1613   10.8034 H         1 <0>         0.0965
     59 H30        10.9374   -6.9407    7.9296 H         1 <0>         0.0566
     60 H31        11.1660   -8.2796    9.0800 H         1 <0>         0.0572
     61 H32        10.2511   -8.5446    7.5763 H         1 <0>         0.0551
@<TRIPOS>BOND
     1    1    2 1
     2    1   32 1
     3    1   33 1
     4    1   34 1
     5    2    7 1
     6    2    3 1
     7    2   35 1
     8    3    4 1
     9    3   36 1
    10    3   37 1
    11    4    5 1
    12    4   38 1
    13    4   39 1
    14    5    6 1
    15    5    8 am
    16    6    7 1
    17    6   40 1
    18    6   41 1
    19    7   42 1
    20    7   43 1
    21    8    9 2
    22    8   10 1
    23   10   11 1
    24   10   12 1
    25   10   13 1
    26   12   44 1
    27   12   45 1
    28   12   46 1
    29   13   14 1
    30   14   18 1
    31   14   15 2
    32   15   16 1
    33   16   17 2
    34   17   18 1
    35   17   19 1
    36   19   20 1
    37   20   21 1
    38   20   22 1
    39   20   23 1
    40   22   47 1
    41   22   48 1
    42   22   49 1
    43   23   24 2
    44   23   25 am
    45   25   30 1
    46   25   26 1
    47   26   27 1
    48   26   50 1
    49   26   51 1
    50   27   28 1
    51   27   52 1
    52   27   53 1
    53   28   29 1
    54   28   31 1
    55   28   54 1
    56   29   30 1
    57   29   55 1
    58   29   56 1
    59   30   57 1
    60   30   58 1
    61   31   59 1
    62   31   60 1
    63   31   61 1
@<TRIPOS>MOLECULE
ZINC13980057
   45    47     0     0     0
SMALL
USER_CHARGES
5-bromo-N-[[[2-(2-phenylphenoxy)acetyl]amino]carbamothioyl]furan-2-carboxamide
@<TRIPOS>ATOM
      1 C1          1.1702    2.0863    0.0021 C.ar      1 <0>        -0.1160
      2 C2         -0.0166    1.3759    0.0096 C.ar      1 <0>        -0.1220
      3 C3          0.0021   -0.0041    0.0020 C.ar      1 <0>        -0.1072
      4 C4          1.2198   -0.6817   -0.0132 C.ar      1 <0>        -0.0460
      5 C5          2.4124    0.0392   -0.0207 C.ar      1 <0>        -0.0849
      6 C6          2.3817    1.4190   -0.0130 C.ar      1 <0>        -0.1180
      7 C7          1.2463   -2.1647   -0.0210 C.ar      1 <0>        -0.0683
      8 C8          0.4937   -2.8828    0.9055 C.ar      1 <0>        -0.0676
      9 C9          0.5214   -4.2626    0.8940 C.ar      1 <0>        -0.1489
     10 C10         1.2942   -4.9364   -0.0354 C.ar      1 <0>        -0.0773
     11 C11         2.0446   -4.2339   -0.9590 C.ar      1 <0>        -0.2082
     12 C12         2.0223   -2.8482   -0.9618 C.ar      1 <0>         0.1343
     13 O1          2.7554   -2.1565   -1.8725 O.3       1 <0>        -0.2794
     14 C13         3.5239   -2.9220   -2.8028 C.3       1 <0>         0.0506
     15 C14         4.2654   -1.9913   -3.7276 C.2       1 <0>         0.5225
     16 O2          4.1474   -0.7908   -3.6023 O.2       1 <0>        -0.4831
     17 N1          5.0597   -2.4931   -4.6939 N.am      1 <0>        -0.5520
     18 N2          5.7490   -1.6279   -5.5536 N.pl3     1 <0>        -0.4505
     19 C15         6.5433   -2.1297   -6.5199 C.2       1 <0>         0.5149
     20 S1          7.3856   -1.0725   -7.5705 S.2       1 <0>        -0.4414
     21 N3          6.6745   -3.4638   -6.6592 N.am      1 <0>        -0.6419
     22 C16         7.4688   -3.9656   -7.6255 C.2       1 <0>         0.5885
     23 O3          8.0675   -3.2141   -8.3722 O.2       1 <0>        -0.3745
     24 C17         7.6113   -5.4152   -7.7768 C.2       1 <0>        -0.0701
     25 C18         8.3799   -6.0535   -8.7094 C.2       1 <0>        -0.0947
     26 C19         8.2200   -7.4295   -8.4909 C.2       1 <0>        -0.1614
     27 C20         7.3707   -7.5712   -7.4467 C.2       1 <0>         0.0036
     28 O4          7.0112   -6.3548   -7.0160 O.3       1 <0>        -0.1553
     29 Br1         6.7927   -9.2150   -6.7122 Br        1 <0>         0.0724
     30 H1          1.1509    3.1662    0.0077 H         1 <0>         0.1218
     31 H2         -0.9597    1.9021    0.0169 H         1 <0>         0.1232
     32 H3         -0.9252   -0.5578    0.0082 H         1 <0>         0.1218
     33 H4          3.3589   -0.4808   -0.0322 H         1 <0>         0.1199
     34 H5          3.3054    1.9787   -0.0192 H         1 <0>         0.1224
     35 H6         -0.1105   -2.3604    1.6324 H         1 <0>         0.1339
     36 H7         -0.0624   -4.8185    1.6127 H         1 <0>         0.1292
     37 H8          1.3106   -6.0162   -0.0393 H         1 <0>         0.1286
     38 H9          2.6457   -4.7652   -1.6819 H         1 <0>         0.1296
     39 H10         4.2387   -3.5413   -2.2610 H         1 <0>         0.1046
     40 H11         2.8591   -3.5596   -3.3855 H         1 <0>         0.1043
     41 H12         5.1541   -3.4533   -4.7941 H         1 <0>         0.4211
     42 H13         5.6546   -0.6677   -5.4534 H         1 <0>         0.4614
     43 H14         6.1972   -4.0629   -6.0640 H         1 <0>         0.4077
     44 H15         8.9918   -5.5883   -9.4681 H         1 <0>         0.1777
     45 H16         8.6869   -8.2264   -9.0507 H         1 <0>         0.1745
@<TRIPOS>BOND
     1    1    6 ar
     2    1    2 ar
     3    1   30 1
     4    2    3 ar
     5    2   31 1
     6    3    4 ar
     7    3   32 1
     8    4    5 ar
     9    4    7 1
    10    5    6 ar
    11    5   33 1
    12    6   34 1
    13    7   12 ar
    14    7    8 ar
    15    8    9 ar
    16    8   35 1
    17    9   10 ar
    18    9   36 1
    19   10   11 ar
    20   10   37 1
    21   11   12 ar
    22   11   38 1
    23   12   13 1
    24   13   14 1
    25   14   15 1
    26   14   39 1
    27   14   40 1
    28   15   16 2
    29   15   17 am
    30   17   18 1
    31   17   41 1
    32   18   19 1
    33   18   42 1
    34   19   20 2
    35   19   21 1
    36   21   22 am
    37   21   43 1
    38   22   23 2
    39   22   24 1
    40   24   28 1
    41   24   25 2
    42   25   26 1
    43   25   44 1
    44   26   27 2
    45   26   45 1
    46   27   28 1
    47   27   29 1
@<TRIPOS>MOLECULE
ZINC18764594
   58    61     0     0     0
SMALL
USER_CHARGES
2-[[4-amino-5-[(2,6-dimethylphenoxy)methyl]-1,2,4-triazol-3-yl]sulfanyl]-N-[(R)-phenyl-(2-thienyl)methyl]acetamide
@<TRIPOS>ATOM
      1 C1          4.5068    4.2219    1.5102 C.3       1 <0>        -0.1177
      2 C2          3.4482    5.2889    1.6183 C.ar      1 <0>        -0.0957
      3 C3          3.8131    6.6093    1.7972 C.ar      1 <0>        -0.1153
      4 C4          2.8421    7.5880    1.9017 C.ar      1 <0>        -0.1094
      5 C5          1.5040    7.2489    1.8227 C.ar      1 <0>        -0.1145
      6 C6          1.1340    5.9308    1.6386 C.ar      1 <0>        -0.0881
      7 C7          2.1064    4.9469    1.5330 C.ar      1 <0>         0.0819
      8 O1          1.7449    3.6494    1.3518 O.3       1 <0>        -0.3210
      9 C8          1.6045    3.1973    0.0035 C.3       1 <0>         0.1547
     10 C9          1.2022    1.7450   -0.0000 C.2       1 <0>         0.1469
     11 N1         -0.0154    1.2810    0.0091 N.2       1 <0>        -0.2400
     12 N2          0.0021   -0.0041    0.0020 N.2       1 <0>        -0.2894
     13 C10         1.2427   -0.4332   -0.0121 C.2       1 <0>         0.1759
     14 N3          2.0474    0.6699   -0.0139 N.pl3     1 <0>        -0.2965
     15 N4          3.4131    0.6946   -0.0268 N.3       1 <0>        -0.5837
     16 S1          1.7698   -2.1144   -0.0257 S.3       1 <0>         0.1215
     17 C11         0.1629   -2.9476   -0.0151 C.3       1 <0>        -0.1617
     18 C12         0.3709   -4.4401   -0.0247 C.2       1 <0>         0.5410
     19 O2          1.4948   -4.8957   -0.0375 O.2       1 <0>        -0.5131
     20 N5         -0.6921   -5.2687   -0.0191 N.am      1 <0>        -0.7178
     21 C13        -0.4899   -6.7197   -0.0285 C.3       1 <0>         0.2793
     22 H1          0.3885   -6.9602   -0.6273 H         1 <0>         0.1200
     23 C14        -1.7014   -7.3919   -0.6212 C.ar      1 <0>        -0.0959
     24 C15        -2.9678   -6.9335   -0.3098 C.ar      1 <0>        -0.1075
     25 C16        -4.0790   -7.5473   -0.8570 C.ar      1 <0>        -0.1136
     26 C17        -3.9241   -8.6253   -1.7084 C.ar      1 <0>        -0.1118
     27 C18        -2.6579   -9.0870   -2.0157 C.ar      1 <0>        -0.1147
     28 C19        -1.5465   -8.4704   -1.4719 C.ar      1 <0>        -0.0991
     29 C20        -0.2848   -7.2074    1.3826 C.2       1 <0>        -0.1545
     30 C21         0.5740   -8.1492    1.8439 C.2       1 <0>        -0.1393
     31 C22         0.5922   -8.4350    3.1962 C.2       1 <0>        -0.1555
     32 C23        -0.2567   -7.7725    4.0195 C.2       1 <0>        -0.1711
     33 S2         -1.1154   -6.7002    2.8793 S.3       1 <0>         0.0445
     34 C24        -0.3246    5.5619    1.5521 C.3       1 <0>        -0.1157
     35 H2          4.7927    4.0982    0.4656 H         1 <0>         0.0676
     36 H3          5.3795    4.5155    2.0934 H         1 <0>         0.0747
     37 H4          4.1139    3.2801    1.8933 H         1 <0>         0.0698
     38 H5          4.8576    6.8767    1.8592 H         1 <0>         0.1284
     39 H6          3.1294    8.6191    2.0457 H         1 <0>         0.1280
     40 H7          0.7474    8.0152    1.9054 H         1 <0>         0.1292
     41 H8          2.5541    3.3125   -0.5191 H         1 <0>         0.0692
     42 H9          0.8388    3.7876   -0.4998 H         1 <0>         0.0989
     43 H10         3.7657    0.7058   -0.9721 H         1 <0>         0.3690
     44 H11         3.7656    1.4797    0.4999 H         1 <0>         0.3791
     45 H12        -0.3879   -2.6633    0.8815 H         1 <0>         0.1303
     46 H13        -0.4043   -2.6541   -0.8984 H         1 <0>         0.1299
     47 H14        -1.5910   -4.9043   -0.0089 H         1 <0>         0.4067
     48 H15        -3.0890   -6.0936    0.3583 H         1 <0>         0.1203
     49 H16        -5.0683   -7.1864   -0.6172 H         1 <0>         0.1266
     50 H17        -4.7923   -9.1066   -2.1338 H         1 <0>         0.1252
     51 H18        -2.5368   -9.9292   -2.6808 H         1 <0>         0.1268
     52 H19        -0.5573   -8.8311   -1.7120 H         1 <0>         0.1264
     53 H20         1.2361   -8.6665    1.1654 H         1 <0>         0.1335
     54 H21         1.2700   -9.1777    3.5903 H         1 <0>         0.1351
     55 H22        -0.3816   -7.8688    5.0879 H         1 <0>         0.1860
     56 H23        -0.7024    5.3377    2.5497 H         1 <0>         0.0763
     57 H24        -0.8857    6.3955    1.1299 H         1 <0>         0.0691
     58 H25        -0.4406    4.6857    0.9143 H         1 <0>         0.0706
@<TRIPOS>BOND
     1    1    2 1
     2    1   35 1
     3    1   36 1
     4    1   37 1
     5    2    7 ar
     6    2    3 ar
     7    3    4 ar
     8    3   38 1
     9    4    5 ar
    10    4   39 1
    11    5    6 ar
    12    5   40 1
    13    6    7 ar
    14    6   34 1
    15    7    8 1
    16    8    9 1
    17    9   10 1
    18    9   41 1
    19    9   42 1
    20   10   14 1
    21   10   11 2
    22   11   12 1
    23   12   13 2
    24   13   14 1
    25   13   16 1
    26   14   15 1
    27   15   43 1
    28   15   44 1
    29   16   17 1
    30   17   18 1
    31   17   45 1
    32   17   46 1
    33   18   19 2
    34   18   20 am
    35   20   21 1
    36   20   47 1
    37   21   22 1
    38   21   23 1
    39   21   29 1
    40   23   28 ar
    41   23   24 ar
    42   24   25 ar
    43   24   48 1
    44   25   26 ar
    45   25   49 1
    46   26   27 ar
    47   26   50 1
    48   27   28 ar
    49   27   51 1
    50   28   52 1
    51   29   33 1
    52   29   30 2
    53   30   31 1
    54   30   53 1
    55   31   32 2
    56   31   54 1
    57   32   33 1
    58   32   55 1
    59   34   56 1
    60   34   57 1
    61   34   58 1
@<TRIPOS>MOLECULE
ZINC21081851
   50    52     0     0     0
SMALL
USER_CHARGES
3-[[5-[(N'E)-N'-[1-(4-bromophenyl)ethylidene]hydrazino]-4H-1,2,4-triazol-3-yl]sulfanyl]-N-(o-tolyl)propanamide
@<TRIPOS>ATOM
      1 C1         -3.8294    9.6620   -0.9690 C.3       1 <0>        -0.1160
      2 C2         -2.4887    9.8963   -0.3220 C.ar      1 <0>        -0.1196
      3 C3         -1.9889   11.1793   -0.2118 C.ar      1 <0>        -0.1002
      4 C4         -0.7593   11.3951    0.3825 C.ar      1 <0>        -0.1367
      5 C5         -0.0259   10.3280    0.8683 C.ar      1 <0>        -0.1041
      6 C6         -0.5221    9.0434    0.7654 C.ar      1 <0>        -0.1314
      7 C7         -1.7546    8.8227    0.1643 C.ar      1 <0>         0.1519
      8 N1         -2.2580    7.5218    0.0541 N.am      1 <0>        -0.6809
      9 C8         -1.4141    6.4710    0.0475 C.2       1 <0>         0.5213
     10 O1         -0.2154    6.6558    0.0359 O.2       1 <0>        -0.5150
     11 C9         -1.9598    5.0662    0.0544 C.3       1 <0>        -0.1262
     12 C10        -0.7999    4.0685    0.0447 C.3       1 <0>        -0.1051
     13 S1         -1.4568    2.3776    0.0531 S.3       1 <0>         0.0339
     14 C11        -0.0176    1.3611    0.0408 C.2       1 <0>         0.2242
     15 N2          0.0007   -0.0047    0.0423 N.2       1 <0>        -0.5528
     16 C12         1.3064   -0.4099    0.0246 C.2       1 <0>         0.5385
     17 N3          2.0628    0.6609    0.0125 N.pl3     1 <0>        -0.4744
     18 N4          1.2243    1.7832    0.0228 N.2       1 <0>        -0.3170
     19 N5          1.7526   -1.7236    0.0193 N.pl3     1 <0>        -0.5547
     20 N6          3.1266   -1.9967    0.0005 N.2       1 <0>        -0.2473
     21 C13         3.5442   -3.2263   -0.0044 C.2       1 <0>         0.1453
     22 C14         2.5509   -4.3595    0.0102 C.3       1 <0>        -0.1663
     23 C15         4.9901   -3.5137   -0.0242 C.ar      1 <0>        -0.0312
     24 C16         5.4429   -4.8355   -0.0237 C.ar      1 <0>        -0.0871
     25 C17         6.7967   -5.0972   -0.0491 C.ar      1 <0>        -0.0911
     26 C18         7.7066   -4.0536   -0.0620 C.ar      1 <0>        -0.0768
     27 C19         7.2648   -2.7413   -0.0563 C.ar      1 <0>        -0.0927
     28 C20         5.9138   -2.4654   -0.0378 C.ar      1 <0>        -0.0770
     29 Br1         9.5612   -4.4222   -0.0881 Br        1 <0>        -0.0417
     30 H1         -4.2555   10.6245   -1.2885 H         1 <0>         0.0714
     31 H2         -4.5065    9.1830   -0.2464 H         1 <0>         0.0676
     32 H3         -3.7047    9.0075   -1.8443 H         1 <0>         0.0689
     33 H4         -2.5594   12.0148   -0.5898 H         1 <0>         0.1250
     34 H5         -0.3709   12.3993    0.4678 H         1 <0>         0.1223
     35 H6          0.9339   10.4999    1.3326 H         1 <0>         0.1241
     36 H7          0.0491    8.2109    1.1490 H         1 <0>         0.1439
     37 H8         -3.3425    7.3568   -0.0271 H         1 <0>         0.4349
     38 H9         -2.5674    4.9133    0.9585 H         1 <0>         0.1123
     39 H10        -2.5844    4.9111   -0.8377 H         1 <0>         0.1112
     40 H11        -0.1923    4.2214   -0.8594 H         1 <0>         0.1029
     41 H12        -0.1753    4.2237    0.9368 H         1 <0>         0.1028
     42 H13         1.0275   -2.5507    0.0299 H         1 <0>         0.4391
     43 H14         3.0890   -5.3189    0.0034 H         1 <0>         0.0944
     44 H15         1.9069   -4.2940   -0.8792 H         1 <0>         0.0868
     45 H16         1.9318   -4.2927    0.9170 H         1 <0>         0.0869
     46 H17         4.7343   -5.6504   -0.0084 H         1 <0>         0.1427
     47 H18         7.1480   -6.1185   -0.0539 H         1 <0>         0.1405
     48 H19         7.9799   -1.9320   -0.0668 H         1 <0>         0.1389
     49 H20         5.5704   -1.4414   -0.0341 H         1 <0>         0.1397
     50 H21         3.1581    0.5604   -0.0028 H         1 <0>         0.4743
@<TRIPOS>BOND
     1    1    2 1
     2    1   30 1
     3    1   31 1
     4    1   32 1
     5    2    7 ar
     6    2    3 ar
     7    3    4 ar
     8    3   33 1
     9    4    5 ar
    10    4   34 1
    11    5    6 ar
    12    5   35 1
    13    6    7 ar
    14    6   36 1
    15    7    8 1
    16    8    9 am
    17    8   37 1
    18    9   10 2
    19    9   11 1
    20   11   12 1
    21   11   38 1
    22   11   39 1
    23   12   13 1
    24   12   40 1
    25   12   41 1
    26   13   14 1
    27   14   18 2
    28   14   15 1
    29   15   16 2
    30   16   17 1
    31   16   19 1
    32   17   18 1
    33   17   50 1
    34   19   20 1
    35   19   42 1
    36   20   21 2
    37   21   22 1
    38   21   23 1
    39   22   43 1
    40   22   44 1
    41   22   45 1
    42   23   28 ar
    43   23   24 ar
    44   24   25 ar
    45   24   46 1
    46   25   26 ar
    47   25   47 1
    48   26   27 ar
    49   26   29 1
    50   27   28 ar
    51   27   48 1
    52   28   49 1
@<TRIPOS>MOLECULE
ZINC40947230
   44    46     0     0     0
SMALL
USER_CHARGES

@<TRIPOS>ATOM
      1 C1         -0.0868    1.0380    1.2957 C.ar      1 <0>        -0.0848
      2 C2          1.0744    1.6435    1.7247 C.ar      1 <0>        -0.1434
      3 C3          2.3084    1.1156    1.3674 C.ar      1 <0>         0.1504
      4 C4          2.3783   -0.0244    0.5770 C.ar      1 <0>        -0.2061
      5 C5          1.2224   -0.6366    0.1433 C.ar      1 <0>        -0.0397
      6 C6         -0.0213   -0.1091    0.5004 C.ar      1 <0>        -0.1466
      7 C7         -1.2607   -0.7608    0.0393 C.2       1 <0>         0.1285
      8 N1         -2.3937   -0.1333    0.1231 N.2       1 <0>        -0.2308
      9 N2         -2.4197    1.2674    0.1311 N.am      1 <0>        -0.5793
     10 C8         -3.5795    1.9186    0.3488 C.2       1 <0>         0.5485
     11 O1         -4.6008    1.2919    0.5378 O.2       1 <0>        -0.4828
     12 C9         -3.6075    3.4254    0.3573 C.3       1 <0>        -0.1597
     13 S1         -5.2997    3.9969    0.6742 S.3       1 <0>         0.1363
     14 C10        -5.1672    5.7538    0.6534 C.2       1 <0>         0.0226
     15 N3         -4.1052    6.5097    0.4510 N.2       1 <0>        -0.2763
     16 N4         -4.2254    7.8799    0.4774 N.2       1 <0>        -0.3751
     17 C11        -5.4014    8.4313    0.7047 C.2       1 <0>         0.3519
     18 S2         -6.4365    6.9876    0.8928 S.3       1 <0>         0.0095
     19 N5         -5.7449    9.7764    0.7739 N.pl3     1 <0>        -0.7885
     20 O2          3.4505    1.7164    1.7918 O.3       1 <0>        -0.3070
     21 C12         4.6853    1.1213    1.3879 C.3       1 <0>         0.1003
     22 C13         5.8344    1.9188    1.9488 C.ar      1 <0>        -0.0813
     23 C14         5.5868    3.0340    2.7272 C.ar      1 <0>        -0.0724
     24 C15         6.6401    3.7659    3.2419 C.ar      1 <0>        -0.1026
     25 C16         7.9434    3.3824    2.9787 C.ar      1 <0>        -0.0221
     26 C17         8.1918    2.2664    2.2003 C.ar      1 <0>        -0.0990
     27 C18         7.1369    1.5314    1.6893 C.ar      1 <0>        -0.0192
     28 Cl1         7.4476    0.1271    0.7172 Cl        1 <0>        -0.0501
     29 Cl2         9.2663    4.3022    3.6249 Cl        1 <0>        -0.0507
     30 H1         -1.0459    1.4468    1.5775 H         1 <0>         0.1367
     31 H2          1.0248    2.5301    2.3395 H         1 <0>         0.1389
     32 H3          3.3400   -0.4314    0.3015 H         1 <0>         0.1361
     33 H4          1.2777   -1.5228   -0.4715 H         1 <0>         0.1388
     34 H5         -1.2259   -1.7604   -0.3681 H         1 <0>         0.1897
     35 H6         -1.6031    1.7686   -0.0201 H         1 <0>         0.3961
     36 H7         -2.9461    3.7966    1.1402 H         1 <0>         0.1315
     37 H8         -3.2724    3.8005   -0.6096 H         1 <0>         0.1333
     38 H9         -5.0664   10.4575    0.6448 H         1 <0>         0.4231
     39 H10        -6.6631   10.0340    0.9513 H         1 <0>         0.4239
     40 H11         4.7356    0.0989    1.7624 H         1 <0>         0.0876
     41 H12         4.7458    1.1130    0.2996 H         1 <0>         0.0875
     42 H13         4.5698    3.3337    2.9329 H         1 <0>         0.1523
     43 H14         6.4460    4.6375    3.8494 H         1 <0>         0.1447
     44 H15         9.2087    1.9668    1.9946 H         1 <0>         0.1492
@<TRIPOS>BOND
     1    1    6 ar
     2    1    2 ar
     3    1   30 1
     4    2    3 ar
     5    2   31 1
     6    3    4 ar
     7    3   20 1
     8    4    5 ar
     9    4   32 1
    10    5    6 ar
    11    5   33 1
    12    6    7 1
    13    7    8 2
    14    7   34 1
    15    8    9 1
    16    9   10 am
    17    9   35 1
    18   10   11 2
    19   10   12 1
    20   12   13 1
    21   12   36 1
    22   12   37 1
    23   13   14 1
    24   14   18 1
    25   14   15 2
    26   15   16 1
    27   16   17 2
    28   17   18 1
    29   17   19 1
    30   19   38 1
    31   19   39 1
    32   20   21 1
    33   21   22 1
    34   21   40 1
    35   21   41 1
    36   22   27 ar
    37   22   23 ar
    38   23   24 ar
    39   23   42 1
    40   24   25 ar
    41   24   43 1
    42   25   26 ar
    43   25   29 1
    44   26   27 ar
    45   26   44 1
    46   27   28 1
@<TRIPOS>MOLECULE
ZINC59015650
   41    43     0     0     0
SMALL
USER_CHARGES

@<TRIPOS>ATOM
      1 C1          6.1180    5.2824    8.6066 C.ar      1 <0>        -0.1083
      2 C2          6.5204    5.4812    7.3022 C.ar      1 <0>        -0.0767
      3 C3          7.2370    4.4847    6.6355 C.ar      1 <0>        -0.0329
      4 C4          7.5415    3.2910    7.2966 C.ar      1 <0>        -0.0148
      5 C5          7.1320    3.1058    8.6029 C.ar      1 <0>        -0.0390
      6 C6          6.4220    4.0993    9.2560 C.ar      1 <0>        -0.0847
      7 Cl1         7.5081    1.6251    9.4272 Cl        1 <0>        -0.0421
      8 Cl2         8.4310    2.0450    6.4781 Cl        1 <0>         0.0146
      9 C7          7.6697    4.6904    5.2411 C.2       1 <0>         0.0845
     10 N1          8.3356    3.7622    4.6245 N.2       1 <0>        -0.1668
     11 N2          8.7468    3.9577    3.2995 N.pl3     1 <0>        -0.5505
     12 C8          9.4560    2.9689    2.6426 C.2       1 <0>         0.5615
     13 N3          9.8025    1.8019    3.1440 N.2       1 <0>        -0.5135
     14 C9         10.4778    1.1009    2.2270 C.2       1 <0>         0.2161
     15 N4         10.5701    1.8131    1.1291 N.2       1 <0>        -0.3223
     16 N5          9.9098    3.0282    1.3725 N.pl3     1 <0>        -0.5033
     17 S1         11.1372   -0.5168    2.4563 S.3       1 <0>         0.1162
     18 C10        11.9233   -0.8997    0.8669 C.3       1 <0>        -0.1615
     19 C11        12.5355   -2.2754    0.9278 C.2       1 <0>         0.5464
     20 O1         12.4500   -2.9329    1.9434 O.2       1 <0>        -0.4954
     21 N6         13.1781   -2.7751   -0.1464 N.am      1 <0>        -0.6794
     22 C12        13.8373   -4.0074   -0.0573 C.ar      1 <0>         0.1502
     23 C13        13.1656   -5.1810   -0.3763 C.ar      1 <0>        -0.0167
     24 C14        13.8195   -6.3957   -0.2871 C.ar      1 <0>        -0.1014
     25 C15        15.1402   -6.4436    0.1195 C.ar      1 <0>        -0.0851
     26 C16        15.8118   -5.2775    0.4377 C.ar      1 <0>        -0.1012
     27 C17        15.1661   -4.0588    0.3449 C.ar      1 <0>        -0.0184
     28 Cl3        16.0125   -2.5948    0.7373 Cl        1 <0>        -0.0439
     29 Cl4        11.5071   -5.1222   -0.8857 Cl        1 <0>        -0.0430
     30 H1          5.5678    6.0545    9.1239 H         1 <0>         0.1441
     31 H2          6.2816    6.4056    6.7972 H         1 <0>         0.1435
     32 H3          6.1043    3.9499   10.2774 H         1 <0>         0.1448
     33 H4          7.4328    5.6134    4.7328 H         1 <0>         0.1316
     34 H5          8.5340    4.7866    2.8430 H         1 <0>         0.3986
     35 H6         11.1750   -0.8697    0.0749 H         1 <0>         0.1259
     36 H7         12.7011   -0.1647    0.6599 H         1 <0>         0.1265
     37 H8         13.1840   -2.2812   -0.9812 H         1 <0>         0.4164
     38 H9         13.2980   -7.3084   -0.5349 H         1 <0>         0.1465
     39 H10        15.6484   -7.3940    0.1889 H         1 <0>         0.1480
     40 H11        16.8432   -5.3187    0.7552 H         1 <0>         0.1465
     41 H12         9.8024    3.7653    0.7513 H         1 <0>         0.4386
@<TRIPOS>BOND
     1    1    6 ar
     2    1    2 ar
     3    1   30 1
     4    2    3 ar
     5    2   31 1
     6    3    4 ar
     7    3    9 1
     8    4    5 ar
     9    4    8 1
    10    5    6 ar
    11    5    7 1
    12    6   32 1
    13    9   10 2
    14    9   33 1
    15   10   11 1
    16   11   12 1
    17   11   34 1
    18   12   16 1
    19   12   13 2
    20   13   14 1
    21   14   15 2
    22   14   17 1
    23   15   16 1
    24   16   41 1
    25   17   18 1
    26   18   19 1
    27   18   35 1
    28   18   36 1
    29   19   20 2
    30   19   21 am
    31   21   22 1
    32   21   37 1
    33   22   27 ar
    34   22   23 ar
    35   23   24 ar
    36   23   29 1
    37   24   25 ar
    38   24   38 1
    39   25   26 ar
    40   25   39 1
    41   26   27 ar
    42   26   40 1
    43   27   28 1
@<TRIPOS>MOLECULE
ZINC09035340
   61    65     0     0     0
SMALL
USER_CHARGES
3-(2,5-dioxopyrrolidin-1-yl)-N-(4-isopropylbenzothiazol-2-yl)-N-(tetrahydrofuran-2-ylmethyl)benzamide
@<TRIPOS>ATOM
      1 C1          3.6737    6.5348   -0.2876 C.3       1 <0>        -0.1407
      2 C2          2.9368    5.8025    0.8357 C.3       1 <0>        -0.0629
      3 C3          3.6902    5.9990    2.1527 C.3       1 <0>        -0.1406
      4 C4          1.5421    6.3581    0.9671 C.ar      1 <0>        -0.0190
      5 C5          1.3661    7.6856    1.2597 C.ar      1 <0>        -0.1070
      6 C6          0.1002    8.2376    1.3895 C.ar      1 <0>        -0.0977
      7 C7         -1.0109    7.4314    1.2200 C.ar      1 <0>        -0.0677
      8 C8         -0.8445    6.1013    0.9269 C.ar      1 <0>        -0.1466
      9 C9          0.4296    5.5044    0.7872 C.ar      1 <0>         0.1055
     10 N1          0.4289    4.1851    0.4980 N.2       1 <0>        -0.5029
     11 C10        -0.6785    3.4949    0.3543 C.2       1 <0>         0.3797
     12 S1         -1.9379    4.7335    0.6265 S.3       1 <0>        -0.0053
     13 N2         -0.8319    2.1508    0.0608 N.am      1 <0>        -0.4983
     14 C11        -2.1739    1.5750   -0.0562 C.3       1 <0>         0.0811
     15 C12        -2.7878    1.4254    1.3372 C.3       1 <0>         0.0478
     16 H1         -2.9118    2.4069    1.7948 H         1 <0>         0.0839
     17 C13        -4.1534    0.7186    1.2351 C.3       1 <0>        -0.1502
     18 C14        -3.9953   -0.5420    2.1197 C.3       1 <0>        -0.1572
     19 C15        -2.8075   -0.1496    3.0348 C.3       1 <0>         0.0406
     20 O1         -1.9416    0.6034    2.1585 O.3       1 <0>        -0.3619
     21 C16         0.2535    1.3719   -0.1175 C.2       1 <0>         0.5692
     22 O2          1.3628    1.8144    0.1081 O.2       1 <0>        -0.4546
     23 C17         0.0952   -0.0185   -0.5932 C.ar      1 <0>        -0.1175
     24 C18        -0.9009   -0.8347   -0.0532 C.ar      1 <0>        -0.0994
     25 C19        -1.0494   -2.1306   -0.5027 C.ar      1 <0>        -0.1129
     26 C20        -0.2079   -2.6288   -1.4802 C.ar      1 <0>        -0.0729
     27 C21         0.7897   -1.8267   -2.0197 C.ar      1 <0>         0.1037
     28 C22         0.9440   -0.5219   -1.5791 C.ar      1 <0>        -0.0443
     29 N3          1.6405   -2.3372   -3.0105 N.am      1 <0>        -0.5312
     30 C23         1.7098   -1.8194   -4.2431 C.2       1 <0>         0.5242
     31 O3          1.0657   -0.8742   -4.6449 O.2       1 <0>        -0.4669
     32 C24         2.7218   -2.5988   -5.0543 C.3       1 <0>        -0.1539
     33 C25         3.2234   -3.6744   -4.0694 C.3       1 <0>        -0.1538
     34 C26         2.4462   -3.3862   -2.8035 C.2       1 <0>         0.5249
     35 O4          2.5383   -4.0069   -1.7663 O.2       1 <0>        -0.4659
     36 H2          3.7267    7.5982   -0.0544 H         1 <0>         0.0558
     37 H3          4.6825    6.1329   -0.3826 H         1 <0>         0.0598
     38 H4          3.1369    6.3948   -1.2259 H         1 <0>         0.0536
     39 H5          2.8838    4.7391    0.6025 H         1 <0>         0.0952
     40 H6          3.7432    7.0624    2.3859 H         1 <0>         0.0556
     41 H7          3.1653    5.4773    2.9530 H         1 <0>         0.0540
     42 H8          4.6990    5.5971    2.0577 H         1 <0>         0.0598
     43 H9          2.2328    8.3162    1.3919 H         1 <0>         0.1336
     44 H10        -0.0167    9.2862    1.6201 H         1 <0>         0.1390
     45 H11        -2.0033    7.8463    1.3175 H         1 <0>         0.1328
     46 H12        -2.7997    2.2319   -0.6603 H         1 <0>         0.1049
     47 H13        -2.1092    0.5964   -0.5317 H         1 <0>         0.1284
     48 H14        -4.9449    1.3600    1.6227 H         1 <0>         0.0878
     49 H15        -4.3607    0.4367    0.2028 H         1 <0>         0.0869
     50 H16        -4.8961   -0.7206    2.7068 H         1 <0>         0.0878
     51 H17        -3.7488   -1.4139    1.5139 H         1 <0>         0.0818
     52 H18        -3.1496    0.4714    3.8627 H         1 <0>         0.0675
     53 H19        -2.3002   -1.0393    3.4079 H         1 <0>         0.1000
     54 H20        -1.5574   -0.4504    0.7135 H         1 <0>         0.1709
     55 H21        -1.8231   -2.7591   -0.0871 H         1 <0>         0.1410
     56 H22        -0.3266   -3.6453   -1.8254 H         1 <0>         0.1335
     57 H23         1.7186    0.1033   -1.9979 H         1 <0>         0.1359
     58 H24         3.5428   -1.9552   -5.3703 H         1 <0>         0.1265
     59 H25         2.2448   -3.0621   -5.9180 H         1 <0>         0.1260
     60 H26         4.2939   -3.5659   -3.8954 H         1 <0>         0.1262
     61 H27         2.9956   -4.6737   -4.4403 H         1 <0>         0.1263
@<TRIPOS>BOND
     1    1    2 1
     2    1   36 1
     3    1   37 1
     4    1   38 1
     5    2    3 1
     6    2    4 1
     7    2   39 1
     8    3   40 1
     9    3   41 1
    10    3   42 1
    11    4    9 ar
    12    4    5 ar
    13    5    6 ar
    14    5   43 1
    15    6    7 ar
    16    6   44 1
    17    7    8 ar
    18    7   45 1
    19    8   12 1
    20    8    9 ar
    21    9   10 1
    22   10   11 2
    23   11   12 1
    24   11   13 1
    25   13   14 1
    26   13   21 am
    27   14   15 1
    28   14   46 1
    29   14   47 1
    30   15   16 1
    31   15   20 1
    32   15   17 1
    33   17   18 1
    34   17   48 1
    35   17   49 1
    36   18   19 1
    37   18   50 1
    38   18   51 1
    39   19   20 1
    40   19   52 1
    41   19   53 1
    42   21   22 2
    43   21   23 1
    44   23   28 ar
    45   23   24 ar
    46   24   25 ar
    47   24   54 1
    48   25   26 ar
    49   25   55 1
    50   26   27 ar
    51   26   56 1
    52   27   28 ar
    53   27   29 1
    54   28   57 1
    55   29   34 am
    56   29   30 am
    57   30   31 2
    58   30   32 1
    59   32   33 1
    60   32   58 1
    61   32   59 1
    62   33   34 1
    63   33   60 1
    64   33   61 1
    65   34   35 2
@<TRIPOS>MOLECULE
ZINC10301924
   50    53     0     0     0
SMALL
USER_CHARGES
2-[[4-benzyl-5-(5-bromo-2-furyl)-1,2,4-triazol-3-yl]sulfanyl]-1-(2-methylmorpholin-4-yl)-ethanone
@<TRIPOS>ATOM
      1 C1         -4.7539    1.0991   -0.9946 C.3       1 <0>        -0.1454
      2 C2         -3.3521    1.7039   -1.0955 C.3       1 <0>         0.0737
      3 H1         -2.9181    1.4591   -2.0649 H         1 <0>         0.0651
      4 C3         -2.4676    1.1353    0.0199 C.3       1 <0>         0.0832
      5 N1         -1.1906    1.8666    0.0178 N.am      1 <0>        -0.6096
      6 C4         -1.2357    3.3373    0.0323 C.3       1 <0>         0.0661
      7 C5         -2.1803    3.7987   -1.0892 C.3       1 <0>         0.0480
      8 O1         -3.4335    3.1242   -0.9538 O.3       1 <0>        -0.3741
      9 C6         -0.0144    1.2086    0.0087 C.2       1 <0>         0.5386
     10 O2          0.0021   -0.0041    0.0020 O.2       1 <0>        -0.5213
     11 C7          1.2803    1.9798    0.0005 C.3       1 <0>        -0.1502
     12 S1          2.6718    0.8225   -0.0190 S.3       1 <0>         0.0925
     13 C8          4.0166    1.9609   -0.0258 C.2       1 <0>         0.1561
     14 N2          3.9276    3.2718   -0.0174 N.2       1 <0>        -0.2847
     15 N3          5.1010    3.7954   -0.0255 N.2       1 <0>        -0.2402
     16 C9          6.0145    2.8493   -0.0395 C.2       1 <0>         0.2551
     17 N4          5.3465    1.6444   -0.0346 N.pl3     1 <0>        -0.4463
     18 C10         5.9377    0.3040   -0.0409 C.3       1 <0>         0.1455
     19 C11         6.1322   -0.1526   -1.4638 C.ar      1 <0>        -0.1280
     20 C12         5.1282   -0.8501   -2.1092 C.ar      1 <0>        -0.0910
     21 C13         5.3046   -1.2644   -3.4162 C.ar      1 <0>        -0.1200
     22 C14         6.4891   -0.9907   -4.0741 C.ar      1 <0>        -0.1020
     23 C15         7.4952   -0.2981   -3.4269 C.ar      1 <0>        -0.1216
     24 C16         7.3167    0.1211   -2.1218 C.ar      1 <0>        -0.0957
     25 C17         7.4728    3.0412   -0.0522 C.2       1 <0>         0.0673
     26 C18         8.1297    4.2004    0.2333 C.2       1 <0>        -0.1314
     27 C19         9.5053    3.9305    0.0995 C.2       1 <0>        -0.1464
     28 C20         9.6217    2.6346   -0.2571 C.2       1 <0>        -0.0186
     29 O3          8.3926    2.0993   -0.3426 O.3       1 <0>        -0.1571
     30 Br1        11.2463    1.7213   -0.5773 Br        1 <0>         0.0672
     31 H2         -5.1875    1.3467   -0.0257 H         1 <0>         0.0679
     32 H3         -5.3822    1.5038   -1.7880 H         1 <0>         0.0703
     33 H4         -4.6905    0.0159   -1.0982 H         1 <0>         0.0763
     34 H5         -2.2844    0.0761   -0.1608 H         1 <0>         0.1048
     35 H6         -2.9623    1.2633    0.9827 H         1 <0>         0.0814
     36 H7         -1.6089    3.6837    0.9960 H         1 <0>         0.0867
     37 H8         -0.2364    3.7370   -0.1403 H         1 <0>         0.0996
     38 H9         -1.7420    3.5614   -2.0586 H         1 <0>         0.0586
     39 H10        -2.3361    4.8749   -1.0136 H         1 <0>         0.1118
     40 H11         1.3211    2.6120   -0.8866 H         1 <0>         0.1295
     41 H12         1.3381    2.6024    0.8933 H         1 <0>         0.1304
     42 H13         6.9016    0.3297    0.4674 H         1 <0>         0.1115
     43 H14         5.2731   -0.3887    0.4754 H         1 <0>         0.1127
     44 H15         4.2046   -1.0679   -1.5936 H         1 <0>         0.1278
     45 H16         4.5183   -1.8052   -3.9220 H         1 <0>         0.1286
     46 H17         6.6283   -1.3176   -5.0940 H         1 <0>         0.1266
     47 H18         8.4206   -0.0843   -3.9409 H         1 <0>         0.1263
     48 H19         8.1028    0.6621   -1.6161 H         1 <0>         0.1303
     49 H20         7.6820    5.1437    0.5092 H         1 <0>         0.1729
     50 H21        10.3145    4.6290    0.2537 H         1 <0>         0.1715
@<TRIPOS>BOND
     1    1    2 1
     2    1   31 1
     3    1   32 1
     4    1   33 1
     5    2    3 1
     6    2    8 1
     7    2    4 1
     8    4    5 1
     9    4   34 1
    10    4   35 1
    11    5    6 1
    12    5    9 am
    13    6    7 1
    14    6   36 1
    15    6   37 1
    16    7    8 1
    17    7   38 1
    18    7   39 1
    19    9   10 2
    20    9   11 1
    21   11   12 1
    22   11   40 1
    23   11   41 1
    24   12   13 1
    25   13   17 1
    26   13   14 2
    27   14   15 1
    28   15   16 2
    29   16   17 1
    30   16   25 1
    31   17   18 1
    32   18   19 1
    33   18   42 1
    34   18   43 1
    35   19   24 ar
    36   19   20 ar
    37   20   21 ar
    38   20   44 1
    39   21   22 ar
    40   21   45 1
    41   22   23 ar
    42   22   46 1
    43   23   24 ar
    44   23   47 1
    45   24   48 1
    46   25   29 1
    47   25   26 2
    48   26   27 1
    49   26   49 1
    50   27   28 2
    51   27   50 1
    52   28   29 1
    53   28   30 1
@<TRIPOS>MOLECULE
ZINC16766706
   56    60     0     0     0
SMALL
USER_CHARGES
N,N-dimethyl-1-(2-BLAHylsulfanylacetyl)-3,4-dihydro-2H-quinoline-6-sulfonamide
@<TRIPOS>ATOM
      1 C1          0.4338    8.3275   -2.9914 C.3       1 <0>         0.0839
      2 N1          1.4650    8.2044   -1.9580 N.pl3     1 <0>        -1.0049
      3 C2          2.8727    8.4260   -2.2978 C.3       1 <0>         0.0816
      4 S1          1.0393    7.8148   -0.4058 S.o2      1 <0>         2.6934
      5 O1         -0.3176    8.2058   -0.2465 O.2       1 <0>        -0.9534
      6 O2          2.0763    8.3025    0.4343 O.2       1 <0>        -0.9552
      7 C3          1.0748    6.0575   -0.2813 C.ar      1 <0>        -0.6951
      8 C4         -0.0632    5.3229   -0.5607 C.ar      1 <0>        -0.0016
      9 C5         -0.0352    3.9464   -0.4621 C.ar      1 <0>        -0.1705
     10 C6          1.1357    3.2991   -0.0884 C.ar      1 <0>         0.2110
     11 C7          2.2761    4.0359    0.1948 C.ar      1 <0>        -0.1340
     12 C8          2.2393    5.4168    0.0946 C.ar      1 <0>         0.0021
     13 C9          3.5629    3.3692    0.6041 C.3       1 <0>        -0.0808
     14 C10         3.2907    1.9643    1.1412 C.3       1 <0>        -0.1369
     15 C11         2.4301    1.2031    0.1244 C.3       1 <0>         0.0939
     16 N2          1.1418    1.9012    0.0151 N.am      1 <0>        -0.5499
     17 C12        -0.0144    1.2087    0.0087 C.2       1 <0>         0.5348
     18 O3         -1.0743    1.7979    0.0298 O.2       1 <0>        -0.4917
     19 C13         0.0098   -0.2979   -0.0183 C.3       1 <0>        -0.1564
     20 S2         -1.6831   -0.9264   -0.1409 S.3       1 <0>         0.0691
     21 C14        -1.3659   -2.6596   -0.1531 C.ar      1 <0>         0.1901
     22 C15        -2.4388   -3.5897   -0.2409 C.ar      1 <0>        -0.1562
     23 C16        -3.8824   -3.3159   -0.3283 C.2       1 <0>        -0.1167
     24 C17        -4.6983   -4.3798   -0.4038 C.2       1 <0>        -0.1575
     25 S3         -3.6206   -5.7937   -0.3610 S.3       1 <0>         0.1619
     26 C18        -2.0687   -4.9463   -0.2433 C.ar      1 <0>         0.1253
     27 N3         -0.8040   -5.3164   -0.1678 N.ar      1 <0>        -0.4810
     28 C19         0.1499   -4.4087   -0.0876 C.ar      1 <0>         0.3309
     29 N4         -0.1245   -3.1166   -0.0862 N.ar      1 <0>        -0.5408
     30 C20        -6.1469   -3.9802   -0.4934 C.3       1 <0>        -0.0386
     31 C21        -6.1135   -2.4903   -0.8989 C.3       1 <0>        -0.1153
     32 C22        -4.7414   -2.0483   -0.3534 C.3       1 <0>        -0.0664
     33 H1         -0.5445    8.1287   -2.5539 H         1 <0>         0.0860
     34 H2          0.4498    9.3370   -3.4021 H         1 <0>         0.0687
     35 H3          0.6290    7.6084   -3.7869 H         1 <0>         0.0624
     36 H4          3.3253    7.4829   -2.6042 H         1 <0>         0.0556
     37 H5          2.9405    9.1440   -3.1150 H         1 <0>         0.0792
     38 H6          3.3996    8.8158   -1.4269 H         1 <0>         0.0845
     39 H7         -0.9726    5.8256   -0.8552 H         1 <0>         0.1434
     40 H8         -0.9232    3.3715   -0.6799 H         1 <0>         0.1750
     41 H9          3.1252    5.9953    0.3109 H         1 <0>         0.1435
     42 H10         4.0451    3.9638    1.3800 H         1 <0>         0.0885
     43 H11         4.2235    3.3021   -0.2603 H         1 <0>         0.0839
     44 H12         2.7596    2.0328    2.0906 H         1 <0>         0.0764
     45 H13         4.2340    1.4382    1.2877 H         1 <0>         0.0945
     46 H14         2.2683    0.1816    0.4689 H         1 <0>         0.1003
     47 H15         2.9275    1.1920   -0.8454 H         1 <0>         0.0868
     48 H16         0.5864   -0.6366   -0.8791 H         1 <0>         0.1311
     49 H17         0.4703   -0.6704    0.8967 H         1 <0>         0.1323
     50 H18         1.1793   -4.7294   -0.0264 H         1 <0>         0.2122
     51 H19        -6.6578   -4.5702   -1.2543 H         1 <0>         0.0870
     52 H20        -6.6351   -4.1004    0.4737 H         1 <0>         0.0937
     53 H21        -6.1568   -2.3797   -1.9824 H         1 <0>         0.0804
     54 H22        -6.9209   -1.9371   -0.4191 H         1 <0>         0.0900
     55 H23        -4.2956   -1.3037   -1.0129 H         1 <0>         0.0816
     56 H24        -4.8484   -1.6440    0.6532 H         1 <0>         0.0879
@<TRIPOS>BOND
     1    1    2 1
     2    1   33 1
     3    1   34 1
     4    1   35 1
     5    2    3 1
     6    2    4 1
     7    3   36 1
     8    3   37 1
     9    3   38 1
    10    4    5 2
    11    4    6 2
    12    4    7 1
    13    7   12 ar
    14    7    8 ar
    15    8    9 ar
    16    8   39 1
    17    9   10 ar
    18    9   40 1
    19   10   16 1
    20   10   11 ar
    21   11   12 ar
    22   11   13 1
    23   12   41 1
    24   13   14 1
    25   13   42 1
    26   13   43 1
    27   14   15 1
    28   14   44 1
    29   14   45 1
    30   15   16 1
    31   15   46 1
    32   15   47 1
    33   16   17 am
    34   17   18 2
    35   17   19 1
    36   19   20 1
    37   19   48 1
    38   19   49 1
    39   20   21 1
    40   21   29 ar
    41   21   22 ar
    42   22   26 ar
    43   22   23 1
    44   23   32 1
    45   23   24 2
    46   24   25 1
    47   24   30 1
    48   25   26 1
    49   26   27 ar
    50   27   28 ar
    51   28   29 ar
    52   28   50 1
    53   30   31 1
    54   30   51 1
    55   30   52 1
    56   31   32 1
    57   31   53 1
    58   31   54 1
    59   32   55 1
    60   32   56 1
@<TRIPOS>MOLECULE
ZINC35520730
   63    66     0     0     0
SMALL
USER_CHARGES

@<TRIPOS>ATOM
      1 C1         -0.7601    1.3568   -0.9535 C.3       1 <0>        -0.1670
      2 C2         -0.4957   -0.0895   -0.5303 C.3       1 <0>         0.0845
      3 N1         -1.7639   -0.7374   -0.1865 N.am      1 <0>        -0.4920
      4 C3         -2.1653   -0.7717    1.1102 C.2       1 <0>         0.5167
      5 C4         -3.3768   -1.3872    1.4661 C.2       1 <0>        -0.2094
      6 C5         -4.1752   -1.9698    0.4674 C.2       1 <0>         0.1271
      7 C6         -3.7417   -1.9209   -0.8545 C.2       1 <0>        -0.1755
      8 C7         -2.5128   -1.2830   -1.1617 C.2       1 <0>         0.5487
      9 O1         -2.1302   -1.2327   -2.3174 O.2       1 <0>        -0.5211
     10 C8         -4.5319   -2.5056   -1.8958 C.1       1 <0>         0.2794
     11 N2         -5.1588   -2.9694   -2.7219 N.1       1 <0>        -0.4135
     12 C9         -5.4792   -2.6370    0.8215 C.3       1 <0>        -0.1392
     13 C10        -3.8038   -1.4218    2.8660 C.2       1 <0>         0.1413
     14 C11        -4.9240   -0.7527    3.2525 C.2       1 <0>        -0.2434
     15 C12        -5.7604    0.1285    2.5017 C.2       1 <0>         0.5361
     16 O2         -5.5179    0.3816    1.3354 O.2       1 <0>        -0.4463
     17 N3         -6.8058    0.6607    3.1107 N.am      1 <0>        -0.5231
     18 C13        -7.0746    0.3795    4.4050 C.2       1 <0>         0.2789
     19 S1         -8.3592    0.9500    5.3823 S.2       1 <0>        -0.3185
     20 S2         -5.7539   -0.7437    4.8357 S.3       1 <0>         0.0643
     21 C14        -7.6860    1.5692    2.3718 C.3       1 <0>         0.0902
     22 C15        -8.8026    0.7654    1.7025 C.3       1 <0>        -0.0833
     23 C16        -9.7081    1.7000    0.9424 C.ar      1 <0>        -0.1244
     24 C17       -10.8010    2.2662    1.5722 C.ar      1 <0>        -0.0672
     25 C18       -11.6328    3.1229    0.8775 C.ar      1 <0>        -0.1498
     26 C19       -11.3705    3.4153   -0.4531 C.ar      1 <0>         0.1300
     27 C20       -10.2730    2.8462   -1.0826 C.ar      1 <0>        -0.2073
     28 C21        -9.4413    1.9942   -0.3820 C.ar      1 <0>        -0.0695
     29 O3        -12.1875    4.2574   -1.1387 O.3       1 <0>        -0.3170
     30 C22       -11.8565    4.5129   -2.5052 C.3       1 <0>         0.0262
     31 N4         -1.3856   -0.2042    2.0752 N.pl3     1 <0>        -0.6873
     32 C23        -0.3174   -0.8835    2.8229 C.3       1 <0>         0.1259
     33 C24         0.2666    0.1400    3.8193 C.3       1 <0>        -0.1299
     34 C25        -0.8826    1.1712    3.9719 C.3       1 <0>        -0.1310
     35 C26        -1.4703    1.1934    2.5364 C.3       1 <0>         0.1264
     36 H1          0.1890    1.8642   -1.1260 H         1 <0>         0.0798
     37 H2         -1.3486    1.3651   -1.8709 H         1 <0>         0.0686
     38 H3         -1.3092    1.8715   -0.1650 H         1 <0>         0.0594
     39 H4         -0.0237   -0.6280   -1.3521 H         1 <0>         0.1037
     40 H5          0.1642   -0.0994    0.3372 H         1 <0>         0.0993
     41 H6         -6.2935   -1.9192    0.7217 H         1 <0>         0.0915
     42 H7         -5.6515   -3.4776    0.1494 H         1 <0>         0.0860
     43 H8         -5.4359   -2.9967    1.8496 H         1 <0>         0.0831
     44 H9         -3.2297   -1.9783    3.5921 H         1 <0>         0.1602
     45 H10        -8.1219    2.2929    3.0605 H         1 <0>         0.1140
     46 H11        -7.1095    2.0941    1.6101 H         1 <0>         0.1057
     47 H12        -8.3667    0.0417    1.0137 H         1 <0>         0.0761
     48 H13        -9.3792    0.2405    2.4642 H         1 <0>         0.0836
     49 H14       -11.0048    2.0383    2.6080 H         1 <0>         0.1345
     50 H15       -12.4868    3.5644    1.3697 H         1 <0>         0.1331
     51 H16       -10.0667    3.0723   -2.1183 H         1 <0>         0.1287
     52 H17        -8.5843    1.5544   -0.8704 H         1 <0>         0.1245
     53 H18       -12.5871    5.1990   -2.9339 H         1 <0>         0.1018
     54 H19       -10.8632    4.9583   -2.5612 H         1 <0>         0.0560
     55 H20       -11.8667    3.5764   -3.0628 H         1 <0>         0.0563
     56 H21        -0.7282   -1.7355    3.3647 H         1 <0>         0.0668
     57 H22         0.4605   -1.2181    2.1366 H         1 <0>         0.0612
     58 H23         0.4878   -0.3352    4.7751 H         1 <0>         0.0875
     59 H24         1.1577    0.6138    3.4076 H         1 <0>         0.0788
     60 H25        -1.6222    0.8277    4.6952 H         1 <0>         0.0799
     61 H26        -0.4940    2.1513    4.2484 H         1 <0>         0.0872
     62 H27        -0.8777    1.8423    1.8915 H         1 <0>         0.0643
     63 H28        -2.5088    1.5238    2.5572 H         1 <0>         0.0679
@<TRIPOS>BOND
     1    1    2 1
     2    1   36 1
     3    1   37 1
     4    1   38 1
     5    2    3 1
     6    2   39 1
     7    2   40 1
     8    3    8 am
     9    3    4 1
    10    4    5 2
    11    4   31 1
    12    5    6 1
    13    5   13 1
    14    6    7 2
    15    6   12 1
    16    7    8 1
    17    7   10 1
    18    8    9 2
    19   10   11 3
    20   12   41 1
    21   12   42 1
    22   12   43 1
    23   13   14 2
    24   13   44 1
    25   14   20 1
    26   14   15 1
    27   15   16 2
    28   15   17 am
    29   17   18 1
    30   17   21 1
    31   18   19 2
    32   18   20 1
    33   21   22 1
    34   21   45 1
    35   21   46 1
    36   22   23 1
    37   22   47 1
    38   22   48 1
    39   23   28 ar
    40   23   24 ar
    41   24   25 ar
    42   24   49 1
    43   25   26 ar
    44   25   50 1
    45   26   27 ar
    46   26   29 1
    47   27   28 ar
    48   27   51 1
    49   28   52 1
    50   29   30 1
    51   30   53 1
    52   30   54 1
    53   30   55 1
    54   31   35 1
    55   31   32 1
    56   32   33 1
    57   32   56 1
    58   32   57 1
    59   33   34 1
    60   33   58 1
    61   33   59 1
    62   34   35 1
    63   34   60 1
    64   34   61 1
    65   35   62 1
    66   35   63 1
@<TRIPOS>MOLECULE
ZINC43743702
   77    81     0     0     0
SMALL
USER_CHARGES

@<TRIPOS>ATOM
      1 C1         -0.0187    1.5258    0.0104 C.3       1 <0>        -0.1406
      2 C2          0.0021   -0.0041    0.0020 C.3       1 <0>        -0.0622
      3 C3          0.7633   -0.5012   -1.2121 C.3       1 <0>        -0.1041
      4 C4          2.1457    0.1697   -1.1863 C.3       1 <0>        -0.1209
      5 C5          2.8947   -0.1299    0.1088 C.3       1 <0>        -0.0666
      6 H1          3.1254   -1.1945    0.1469 H         1 <0>         0.0719
      7 C6          2.0677    0.2468    1.3467 C.3       1 <0>        -0.0775
      8 H2          1.8852    1.3213    1.3603 H         1 <0>         0.0912
      9 C7          0.7513   -0.5274    1.2568 C.3       1 <0>        -0.0806
     10 H3          0.9367   -1.5981    1.1705 H         1 <0>         0.0802
     11 C8         -0.2623   -0.2342    2.3686 C.3       1 <0>        -0.1131
     12 C9         -1.6147   -0.6401    1.7218 C.3       1 <0>        -0.1393
     13 C10        -1.4131   -0.5415    0.1891 C.3       1 <0>         0.0941
     14 H4         -1.5065   -1.5266   -0.2682 H         1 <0>         0.0878
     15 O1         -2.3646    0.3611   -0.3784 O.3       1 <0>        -0.3356
     16 C11        -3.5002   -0.1716   -0.8562 C.2       1 <0>         0.4621
     17 O2         -3.6805   -1.3648   -0.7946 O.2       1 <0>        -0.5086
     18 C12        -4.5504    0.7184   -1.4694 C.3       1 <0>        -0.0998
     19 C13        -5.7346   -0.1333   -1.9309 C.3       1 <0>        -0.1220
     20 C14        -6.7848    0.7568   -2.5441 C.2       1 <0>         0.5402
     21 O3         -6.6038    1.9544   -2.6059 O.2       1 <0>        -0.5240
     22 N1         -7.9250    0.2219   -3.0238 N.am      1 <0>        -0.6078
     23 C15        -8.2760   -1.2099   -3.0072 C.3       1 <0>         0.0947
     24 C16        -9.2968   -1.3814   -4.1596 C.3       1 <0>        -0.1324
     25 C17       -10.1001   -0.0574   -4.0638 C.3       1 <0>        -0.1189
     26 C18        -9.0277    0.9703   -3.6446 C.3       1 <0>         0.1479
     27 H5         -8.6651    1.5041   -4.5231 H         1 <0>         0.1171
     28 C19        -9.6081    1.9450   -2.6525 C.2       1 <0>         0.4501
     29 O4         -9.1519    2.0139   -1.5358 O.2       1 <0>        -0.4864
     30 O5        -10.6318    2.7364   -3.0094 O.3       1 <0>        -0.3530
     31 C20       -11.1321    3.6363   -2.0185 C.3       1 <0>         0.0344
     32 C21         2.8357   -0.1696    2.6047 C.3       1 <0>        -0.1135
     33 C22         4.1223    0.6525    2.7042 C.3       1 <0>        -0.0977
     34 C23         4.9122    0.4821    1.4193 C.2       1 <0>        -0.0161
     35 C24         6.2075    0.1857    1.5225 C.2       1 <0>        -0.2427
     36 C25         7.0222    0.0264    0.3130 C.2       1 <0>         0.3880
     37 O6          8.0627   -0.5975    0.3211 O.2       1 <0>        -0.4580
     38 C26         6.4945    0.6827   -0.9479 C.3       1 <0>        -0.1686
     39 C27         5.0313    0.2696   -1.1002 C.3       1 <0>        -0.1050
     40 C28         4.2061    0.6655    0.1264 C.3       1 <0>        -0.0310
     41 C29         3.8595    2.1499   -0.0057 C.3       1 <0>        -0.1503
     42 H6          1.0039    1.9031    0.0027 H         1 <0>         0.0663
     43 H7         -0.5459    1.8868   -0.8726 H         1 <0>         0.0607
     44 H8         -0.5289    1.8773    0.9072 H         1 <0>         0.0582
     45 H9          0.8752   -1.5843   -1.1624 H         1 <0>         0.0650
     46 H10         0.2325   -0.2232   -2.1227 H         1 <0>         0.0662
     47 H11         2.7333   -0.1944   -2.0291 H         1 <0>         0.0665
     48 H12         2.0192    1.2481   -1.2824 H         1 <0>         0.0765
     49 H13        -0.0570   -0.8442    3.2483 H         1 <0>         0.0702
     50 H14        -0.2593    0.8255    2.6235 H         1 <0>         0.0737
     51 H15        -1.8709   -1.6623    2.0005 H         1 <0>         0.0741
     52 H16        -2.4018    0.0434    2.0404 H         1 <0>         0.0741
     53 H17        -4.8903    1.4426   -0.7290 H         1 <0>         0.1150
     54 H18        -4.1263    1.2448   -2.3244 H         1 <0>         0.1146
     55 H19        -5.3947   -0.8575   -2.6712 H         1 <0>         0.1051
     56 H20        -6.1587   -0.6597   -1.0758 H         1 <0>         0.1052
     57 H21        -7.3911   -1.8195   -3.1904 H         1 <0>         0.0891
     58 H22        -8.7315   -1.4778   -2.0539 H         1 <0>         0.0754
     59 H23        -8.7904   -1.4624   -5.1214 H         1 <0>         0.0856
     60 H24        -9.9415   -2.2429   -3.9855 H         1 <0>         0.0944
     61 H25       -10.5305    0.2034   -5.0306 H         1 <0>         0.1017
     62 H26       -10.8764   -0.1316   -3.3022 H         1 <0>         0.0833
     63 H27       -11.4869    3.0688   -1.1582 H         1 <0>         0.0598
     64 H28       -10.3356    4.3112   -1.7052 H         1 <0>         0.0612
     65 H29       -11.9556    4.2155   -2.4363 H         1 <0>         0.1041
     66 H30         2.2187    0.0118    3.4848 H         1 <0>         0.0724
     67 H31         3.0843   -1.2292    2.5455 H         1 <0>         0.0659
     68 H32         3.8737    1.7046    2.8434 H         1 <0>         0.0844
     69 H33         4.7164    0.3007    3.5476 H         1 <0>         0.0775
     70 H34         6.6574    0.0630    2.4966 H         1 <0>         0.1336
     71 H35         6.5661    1.7667   -0.8592 H         1 <0>         0.0997
     72 H36         7.0673    0.3421   -1.8104 H         1 <0>         0.0920
     73 H37         4.6164    0.7512   -1.9857 H         1 <0>         0.0838
     74 H38         4.9787   -0.8116   -1.2278 H         1 <0>         0.0684
     75 H39         3.2253    2.4505    0.8283 H         1 <0>         0.0641
     76 H40         4.7762    2.7394    0.0041 H         1 <0>         0.0585
     77 H41         3.3299    2.3172   -0.9435 H         1 <0>         0.0698
@<TRIPOS>BOND
     1    1    2 1
     2    1   42 1
     3    1   43 1
     4    1   44 1
     5    2    9 1
     6    2   13 1
     7    2    3 1
     8    3    4 1
     9    3   45 1
    10    3   46 1
    11    4    5 1
    12    4   47 1
    13    4   48 1
    14    5    6 1
    15    5   40 1
    16    5    7 1
    17    7    8 1
    18    7    9 1
    19    7   32 1
    20    9   10 1
    21    9   11 1
    22   11   12 1
    23   11   49 1
    24   11   50 1
    25   12   13 1
    26   12   51 1
    27   12   52 1
    28   13   14 1
    29   13   15 1
    30   15   16 1
    31   16   17 2
    32   16   18 1
    33   18   19 1
    34   18   53 1
    35   18   54 1
    36   19   20 1
    37   19   55 1
    38   19   56 1
    39   20   21 2
    40   20   22 am
    41   22   26 1
    42   22   23 1
    43   23   24 1
    44   23   57 1
    45   23   58 1
    46   24   25 1
    47   24   59 1
    48   24   60 1
    49   25   26 1
    50   25   61 1
    51   25   62 1
    52   26   27 1
    53   26   28 1
    54   28   29 2
    55   28   30 1
    56   30   31 1
    57   31   63 1
    58   31   64 1
    59   31   65 1
    60   32   33 1
    61   32   66 1
    62   32   67 1
    63   33   34 1
    64   33   68 1
    65   33   69 1
    66   34   40 1
    67   34   35 2
    68   35   36 1
    69   35   70 1
    70   36   37 2
    71   36   38 1
    72   38   39 1
    73   38   71 1
    74   38   72 1
    75   39   40 1
    76   39   73 1
    77   39   74 1
    78   40   41 1
    79   41   75 1
    80   41   76 1
    81   41   77 1
@<TRIPOS>MOLECULE
ZINC09442806
   42    44     0     0     0
SMALL
USER_CHARGES
ethyl 2-[(4-bromo-2-thienyl)methylene]-3-oxo-4-(7,7,9-trioxo-7$l^{6}-thia-8-azabicyclo[4.3.0]nona-2,4,10-trien-8-yl)-butanoate
@<TRIPOS>ATOM
      1 C1          5.1445    6.8731   -0.5516 C.3       1 <0>        -0.1582
      2 C2          3.8948    6.0274   -0.2987 C.3       1 <0>         0.0630
      3 O1          4.2501    4.6197   -0.3222 O.3       1 <0>        -0.3589
      4 C3          3.2550    3.7336   -0.1145 C.2       1 <0>         0.5027
      5 O2          2.1213    4.1273    0.0808 O.2       1 <0>        -0.4864
      6 C4          3.5405    2.2941   -0.1243 C.2       1 <0>        -0.2687
      7 C5          2.4948    1.3759   -0.0507 C.2       1 <0>         0.1689
      8 C6          1.1682    1.8125   -0.1757 C.2       1 <0>        -0.2293
      9 C7          0.0427    1.4351    0.5626 C.2       1 <0>        -0.0568
     10 C8         -1.1454    2.0206    0.2228 C.2       1 <0>        -0.1514
     11 C9         -1.1738    2.9334   -0.7904 C.2       1 <0>        -0.1713
     12 S1          0.4763    2.9953   -1.3184 S.3       1 <0>         0.2884
     13 Br1        -2.7307    1.5754    1.1527 Br        1 <0>        -0.0315
     14 C10         4.8774    1.8385   -0.2086 C.2       1 <0>         0.3814
     15 O3          5.1135    0.6474   -0.2167 O.2       1 <0>        -0.4299
     16 C11         6.0082    2.8314   -0.2883 C.3       1 <0>         0.1188
     17 N1          7.2832    2.1142   -0.3669 N.am      1 <0>        -0.9154
     18 C12         7.8754    1.6296   -1.4689 C.2       1 <0>         0.5417
     19 O4          7.3611    1.7592   -2.5626 O.2       1 <0>        -0.4598
     20 C13         9.1628    0.9382   -1.3174 C.ar      1 <0>        -0.1107
     21 C14         9.9888    0.3434   -2.2867 C.ar      1 <0>        -0.0359
     22 C15        11.1704   -0.2581   -1.9187 C.ar      1 <0>        -0.0796
     23 C16        11.5698   -0.2909   -0.5942 C.ar      1 <0>        -0.0925
     24 C17        10.7674    0.2910    0.3764 C.ar      1 <0>         0.0058
     25 C18         9.5937    0.8891    0.0149 C.ar      1 <0>        -0.6155
     26 S2          8.3103    1.7338    0.8978 S.o2      1 <0>         2.6510
     27 O5          8.8529    2.9497    1.3942 O.2       1 <0>        -0.9177
     28 O6          7.6512    0.7780    1.7170 O.2       1 <0>        -0.9082
     29 H1          5.8827    6.6717    0.2247 H         1 <0>         0.0698
     30 H2          5.5633    6.6202   -1.5256 H         1 <0>         0.0688
     31 H3          4.8778    7.9298   -0.5339 H         1 <0>         0.0834
     32 H4          3.1566    6.2288   -1.0749 H         1 <0>         0.0745
     33 H5          3.4760    6.2802    0.6754 H         1 <0>         0.0754
     34 H6          2.7061    0.3279    0.1028 H         1 <0>         0.1751
     35 H7          0.1078    0.7113    1.3615 H         1 <0>         0.1541
     36 H8         -2.0210    3.4825   -1.1741 H         1 <0>         0.1992
     37 H9          5.8952    3.4006   -1.1027 H         1 <0>         0.1274
     38 H10         6.0006    3.4628    0.6003 H         1 <0>         0.1346
     39 H11         9.6945    0.3586   -3.3258 H         1 <0>         0.1478
     40 H12        11.7950   -0.7111   -2.6744 H         1 <0>         0.1479
     41 H13        12.4994   -0.7665   -0.3180 H         1 <0>         0.1502
     42 H14        11.0695    0.2716    1.4131 H         1 <0>         0.1476
@<TRIPOS>BOND
     1    1    2 1
     2    1   29 1
     3    1   30 1
     4    1   31 1
     5    2    3 1
     6    2   32 1
     7    2   33 1
     8    3    4 1
     9    4    5 2
    10    4    6 1
    11    6    7 2
    12    6   14 1
    13    7    8 1
    14    7   34 1
    15    8   12 1
    16    8    9 2
    17    9   10 1
    18    9   35 1
    19   10   11 2
    20   10   13 1
    21   11   12 1
    22   11   36 1
    23   14   15 2
    24   14   16 1
    25   16   17 1
    26   16   37 1
    27   16   38 1
    28   17   26 1
    29   17   18 am
    30   18   19 2
    31   18   20 1
    32   20   25 ar
    33   20   21 ar
    34   21   22 ar
    35   21   39 1
    36   22   23 ar
    37   22   40 1
    38   23   24 ar
    39   23   41 1
    40   24   25 ar
    41   24   42 1
    42   25   26 1
    43   26   27 2
    44   26   28 2
@<TRIPOS>MOLECULE
ZINC14305069
   57    61     0     0     0
SMALL
USER_CHARGES
1-benzyl-N-[(3R)-1,1-dioxothiolan-3-yl]-N-methyl-6-phenyl-pyrazolo[5,4-b]pyridine-4-carboxamide
@<TRIPOS>ATOM
      1 C1         -3.2759    6.0083   -3.8835 C.3       1 <0>         0.0566
      2 N1         -3.2506    4.9871   -4.9336 N.am      1 <0>        -0.5939
      3 C2         -4.2743    4.9886   -5.9816 C.3       1 <0>         0.1355
      4 H1         -4.0904    4.1697   -6.6770 H         1 <0>         0.1298
      5 C3         -4.2425    6.3277   -6.7368 C.3       1 <0>        -0.1373
      6 C4         -5.5081    6.4676   -7.6166 C.3       1 <0>        -0.5747
      7 S1         -6.7478    5.4613   -6.7038 S.o2      1 <0>         2.3751
      8 O1         -7.1503    4.3709   -7.5212 O.2       1 <0>        -0.9265
      9 O2         -7.7329    6.3267   -6.1563 O.2       1 <0>        -0.9306
     10 C5         -5.6824    4.8274   -5.3407 C.3       1 <0>        -0.5993
     11 C6         -2.2856    4.0463   -4.9356 C.2       1 <0>         0.5656
     12 O3         -2.2160    3.2490   -5.8504 O.2       1 <0>        -0.5093
     13 C7         -1.3114    3.9840   -3.8248 C.ar      1 <0>         0.0019
     14 C8         -0.6589    5.1280   -3.3786 C.ar      1 <0>        -0.1764
     15 C9          0.2553    5.0270   -2.3261 C.ar      1 <0>         0.2430
     16 N2          0.5128    3.8668   -1.7453 N.ar      1 <0>        -0.4805
     17 C10        -0.0784    2.7460   -2.1291 C.ar      1 <0>         0.3269
     18 C11        -1.0143    2.7593   -3.1838 C.ar      1 <0>        -0.1880
     19 C12        -1.4640    1.4334   -3.3566 C.2       1 <0>         0.0880
     20 N3         -0.8563    0.6723   -2.4915 N.2       1 <0>        -0.2251
     21 N4          0.0076    1.4444   -1.7060 N.pl3     1 <0>        -0.3786
     22 C13         0.8605    0.9471   -0.6238 C.3       1 <0>         0.1842
     23 C14         0.1065    1.0104    0.6795 C.ar      1 <0>        -0.1220
     24 C15         0.1774    2.1459    1.4646 C.ar      1 <0>        -0.0923
     25 C16        -0.5177    2.2056    2.6580 C.ar      1 <0>        -0.1244
     26 C17        -1.2765    1.1263    3.0706 C.ar      1 <0>        -0.1077
     27 C18        -1.3431   -0.0112    2.2881 C.ar      1 <0>        -0.1242
     28 C19        -0.6515   -0.0693    1.0926 C.ar      1 <0>        -0.0914
     29 C20         0.9513    6.2469   -1.8501 C.ar      1 <0>        -0.0587
     30 C21         0.6972    7.4777   -2.4532 C.ar      1 <0>        -0.0938
     31 C22         1.3442    8.6104   -2.0028 C.ar      1 <0>        -0.1225
     32 C23         2.2514    8.5243   -0.9620 C.ar      1 <0>        -0.1005
     33 C24         2.5115    7.3047   -0.3633 C.ar      1 <0>        -0.1251
     34 C25         1.8664    6.1662   -0.8018 C.ar      1 <0>        -0.0721
     35 H2         -2.7318    6.8903   -4.2212 H         1 <0>         0.0695
     36 H3         -4.3088    6.2799   -3.6656 H         1 <0>         0.0809
     37 H4         -2.8059    5.6144   -2.9823 H         1 <0>         0.0864
     38 H5         -4.2083    7.1473   -6.0190 H         1 <0>         0.0930
     39 H6         -3.3558    6.3652   -7.3697 H         1 <0>         0.1034
     40 H7         -5.3345    6.0576   -8.6115 H         1 <0>         0.1444
     41 H8         -5.8241    7.5091   -7.6763 H         1 <0>         0.1469
     42 H9         -5.8997    3.7814   -5.1246 H         1 <0>         0.1481
     43 H10        -5.7804    5.4408   -4.4451 H         1 <0>         0.1450
     44 H11        -0.8567    6.0843   -3.8400 H         1 <0>         0.1513
     45 H12        -2.1881    1.1037   -4.0869 H         1 <0>         0.1987
     46 H13         1.1441   -0.0850   -0.8297 H         1 <0>         0.1063
     47 H14         1.7570    1.5634   -0.5552 H         1 <0>         0.1063
     48 H15         0.7732    2.9878    1.1440 H         1 <0>         0.1259
     49 H16        -0.4659    3.0945    3.2692 H         1 <0>         0.1242
     50 H17        -1.8174    1.1720    4.0043 H         1 <0>         0.1239
     51 H18        -1.9359   -0.8545    2.6105 H         1 <0>         0.1249
     52 H19        -0.7035   -0.9581    0.4812 H         1 <0>         0.1251
     53 H20        -0.0076    7.5453   -3.2687 H         1 <0>         0.1268
     54 H21         1.1453    9.5651   -2.4668 H         1 <0>         0.1289
     55 H22         2.7583    9.4127   -0.6154 H         1 <0>         0.1262
     56 H23         3.2204    7.2434    0.4491 H         1 <0>         0.1277
     57 H24         2.0700    5.2146   -0.3333 H         1 <0>         0.1345
@<TRIPOS>BOND
     1    1    2 1
     2    1   35 1
     3    1   36 1
     4    1   37 1
     5    2    3 1
     6    2   11 am
     7    3    4 1
     8    3   10 1
     9    3    5 1
    10    5    6 1
    11    5   38 1
    12    5   39 1
    13    6    7 1
    14    6   40 1
    15    6   41 1
    16    7    8 2
    17    7    9 2
    18    7   10 1
    19   10   42 1
    20   10   43 1
    21   11   12 2
    22   11   13 1
    23   13   18 ar
    24   13   14 ar
    25   14   15 ar
    26   14   44 1
    27   15   16 ar
    28   15   29 1
    29   16   17 ar
    30   17   21 1
    31   17   18 ar
    32   18   19 1
    33   19   20 2
    34   19   45 1
    35   20   21 1
    36   21   22 1
    37   22   23 1
    38   22   46 1
    39   22   47 1
    40   23   28 ar
    41   23   24 ar
    42   24   25 ar
    43   24   48 1
    44   25   26 ar
    45   25   49 1
    46   26   27 ar
    47   26   50 1
    48   27   28 ar
    49   27   51 1
    50   28   52 1
    51   29   34 ar
    52   29   30 ar
    53   30   31 ar
    54   30   53 1
    55   31   32 ar
    56   31   54 1
    57   32   33 ar
    58   32   55 1
    59   33   34 ar
    60   33   56 1
    61   34   57 1
@<TRIPOS>MOLECULE
ZINC32502801
   56    59     0     0     0
SMALL
USER_CHARGES
(NZ)-N-[(3aR,6aR)-3-(4-dimethylaminophenyl)-5,5-dioxo-3a,4,6,6a-tetrahydrothieno[3,4-d]thiazol-2-ylidene]-2-(2-methoxyphenyl)acetamide
@<TRIPOS>ATOM
      1 C1          9.7249    7.0429   -1.3225 C.3       1 <0>         0.0832
      2 N1          8.9629    7.9649   -0.4767 N.pl3     1 <0>        -0.6337
      3 C2          9.1409    9.4115   -0.6245 C.3       1 <0>         0.0834
      4 C3          8.0652    7.4639    0.4722 C.ar      1 <0>         0.2290
      5 C4          7.8963    6.0925    0.6124 C.ar      1 <0>        -0.1899
      6 C5          7.0107    5.5982    1.5492 C.ar      1 <0>        -0.0391
      7 C6          6.2892    6.4722    2.3515 C.ar      1 <0>         0.0623
      8 C7          6.4540    7.8436    2.2078 C.ar      1 <0>        -0.0586
      9 C8          7.3431    8.3380    1.2745 C.ar      1 <0>        -0.1913
     10 N2          5.3905    5.9706    3.3021 N.pl3     1 <0>        -0.5228
     11 C9          5.6609    6.1505    4.7148 C.3       1 <0>         0.1328
     12 H1          5.6762    7.2400    4.8657 H         1 <0>         0.1220
     13 C10         7.0409    5.5335    5.0450 C.3       1 <0>        -0.5875
     14 S1          6.7755    4.9101    6.7605 S.o2      1 <0>         2.3730
     15 O1          6.9530    5.9774    7.6817 O.2       1 <0>        -0.9162
     16 O2          7.4953    3.6977    6.9373 O.2       1 <0>        -0.9196
     17 C11         4.9751    4.5344    6.5994 C.3       1 <0>        -0.5609
     18 C12         4.5329    5.6351    5.6156 C.3       1 <0>        -0.1303
     19 H2          4.2739    6.4390    6.3204 H         1 <0>         0.1569
     20 S2          3.3840    4.9128    4.3862 S.3       1 <0>         0.0064
     21 C13         4.2689    5.3219    2.8949 C.2       1 <0>         0.4821
     22 N3          3.9097    5.0453    1.6465 N.2       1 <0>        -0.5943
     23 C14         2.7744    4.3928    1.4099 C.2       1 <0>         0.4958
     24 O3          2.0660    4.0499    2.3364 O.2       1 <0>        -0.5107
     25 C15         2.3669    4.0790   -0.0066 C.3       1 <0>        -0.0671
     26 C16         1.0531    3.3407    0.0006 C.ar      1 <0>        -0.1044
     27 C17         1.0358    1.9597   -0.0382 C.ar      1 <0>        -0.0696
     28 C18        -0.1690    1.2819   -0.0312 C.ar      1 <0>        -0.1561
     29 C19        -1.3598    1.9839    0.0089 C.ar      1 <0>        -0.0792
     30 C20        -1.3478    3.3644    0.0535 C.ar      1 <0>        -0.2082
     31 C21        -0.1398    4.0471    0.0466 C.ar      1 <0>         0.1432
     32 O4         -0.1255    5.4054    0.0853 O.3       1 <0>        -0.3146
     33 C22        -1.3915    6.0666    0.1316 C.3       1 <0>         0.0248
     34 H3          9.4586    6.0065   -1.0676 H         1 <0>         0.0809
     35 H4         10.8012    7.1966   -1.1555 H         1 <0>         0.0575
     36 H5          9.4870    7.2333   -2.3794 H         1 <0>         0.0580
     37 H6          8.4898    9.9360    0.0903 H         1 <0>         0.0802
     38 H7          8.8762    9.7107   -1.6494 H         1 <0>         0.0578
     39 H8         10.1904    9.6740   -0.4254 H         1 <0>         0.0576
     40 H9          8.4581    5.4127   -0.0111 H         1 <0>         0.1317
     41 H10         6.8794    4.5318    1.6582 H         1 <0>         0.1243
     42 H11         5.8897    8.5233    2.8291 H         1 <0>         0.1244
     43 H12         7.4743    9.4044    1.1656 H         1 <0>         0.1315
     44 H13         7.2668    4.7337    4.3244 H         1 <0>         0.1536
     45 H14         7.8151    6.3124    4.9829 H         1 <0>         0.1592
     46 H15         4.8470    3.5155    6.2052 H         1 <0>         0.1532
     47 H16         4.4953    4.6087    7.5864 H         1 <0>         0.1587
     48 H17         2.2580    5.0157   -0.5729 H         1 <0>         0.1096
     49 H18         3.1372    3.4521   -0.4795 H         1 <0>         0.1056
     50 H19         1.9643    1.4093   -0.0744 H         1 <0>         0.1267
     51 H20        -0.1804    0.2024   -0.0616 H         1 <0>         0.1241
     52 H21        -2.2998    1.4522    0.0098 H         1 <0>         0.1241
     53 H22        -2.2779    3.9121    0.0894 H         1 <0>         0.1273
     54 H23        -1.2358    7.1552    0.1595 H         1 <0>         0.1005
     55 H24        -1.9372    5.7510    1.0330 H         1 <0>         0.0563
     56 H25        -1.9759    5.8026   -0.7621 H         1 <0>         0.0564
@<TRIPOS>BOND
     1    1    2 1
     2    1   34 1
     3    1   35 1
     4    1   36 1
     5    2    3 1
     6    2    4 1
     7    3   37 1
     8    3   38 1
     9    3   39 1
    10    4    9 ar
    11    4    5 ar
    12    5    6 ar
    13    5   40 1
    14    6    7 ar
    15    6   41 1
    16    7    8 ar
    17    7   10 1
    18    8    9 ar
    19    8   42 1
    20    9   43 1
    21   10   21 1
    22   10   11 1
    23   11   12 1
    24   11   18 1
    25   11   13 1
    26   13   14 1
    27   13   44 1
    28   13   45 1
    29   14   15 2
    30   14   16 2
    31   14   17 1
    32   17   18 1
    33   17   46 1
    34   17   47 1
    35   18   19 1
    36   18   20 1
    37   20   21 1
    38   21   22 2
    39   22   23 1
    40   23   24 2
    41   23   25 1
    42   25   26 1
    43   25   48 1
    44   25   49 1
    45   26   31 ar
    46   26   27 ar
    47   27   28 ar
    48   27   50 1
    49   28   29 ar
    50   28   51 1
    51   29   30 ar
    52   29   52 1
    53   30   31 ar
    54   30   53 1
    55   31   32 1
    56   32   33 1
    57   33   54 1
    58   33   55 1
    59   33   56 1
@<TRIPOS>MOLECULE
ZINC45501596
   48    50     0     0     0
SMALL
USER_CHARGES

@<TRIPOS>ATOM
      1 C1          0.0565    1.4647   -0.0962 C.3       1 <0>         0.0348
      2 O1          0.0697    0.0357   -0.0893 O.3       1 <0>        -0.3510
      3 C2         -1.1255   -0.5871   -0.0654 C.2       1 <0>         0.5229
      4 O2         -2.1509    0.0656   -0.0510 O.2       1 <0>        -0.4995
      5 C3         -1.1890   -2.0561   -0.0569 C.2       1 <0>        -0.2086
      6 C4         -2.4500   -2.7580   -0.0371 C.2       1 <0>         0.0515
      7 C5         -2.3711   -4.1035   -0.0310 C.2       1 <0>        -0.8057
      8 S1         -0.6174   -4.4056   -0.0519 S.3       1 <0>         0.3414
      9 C6         -0.0477   -2.8276   -0.0733 C.2       1 <0>        -0.1501
     10 S2         -3.6846   -5.2777   -0.0075 S.o2      1 <0>         2.7232
     11 O3         -3.1502   -6.4739    0.5427 O.2       1 <0>        -0.9387
     12 O4         -4.8100   -4.6169    0.5548 O.2       1 <0>        -0.9360
     13 N1         -4.0705   -5.6123   -1.5827 N.pl3     1 <0>        -0.9926
     14 C7         -5.0834   -4.8164   -2.2900 C.3       1 <0>         0.1039
     15 C8         -4.4582   -4.2568   -3.5739 C.3       1 <0>         0.0965
     16 N2         -3.7935   -5.3547   -4.2898 N.am      1 <0>        -0.6038
     17 C9         -2.7806   -6.1507   -3.5825 C.3       1 <0>         0.0846
     18 C10        -3.4017   -6.7067   -2.3004 C.3       1 <0>         0.1029
     19 C11        -4.1075   -5.6271   -5.5718 C.2       1 <0>         0.5654
     20 O5         -5.0183   -5.0321   -6.1141 O.2       1 <0>        -0.5065
     21 C12        -3.3445   -6.6490   -6.3184 C.ar      1 <0>        -0.1004
     22 C13        -1.9544   -6.5627   -6.4018 C.ar      1 <0>        -0.0617
     23 C14        -1.2455   -7.5256   -7.1036 C.ar      1 <0>        -0.0851
     24 C15        -1.9198   -8.5734   -7.7218 C.ar      1 <0>        -0.1025
     25 C16        -3.2960   -8.6597   -7.6398 C.ar      1 <0>        -0.0891
     26 C17        -4.0120   -7.7082   -6.9384 C.ar      1 <0>        -0.0030
     27 Cl1        -5.7408   -7.8255   -6.8332 Cl        1 <0>        -0.0403
     28 S3          0.5101   -7.4216   -7.2129 S.3       1 <0>        -0.0990
     29 C18         0.9743   -8.8670   -8.2058 C.3       1 <0>        -0.1484
     30 H1          1.0807    1.8373   -0.1159 H         1 <0>         0.1061
     31 H2         -0.4759    1.8188   -0.9789 H         1 <0>         0.0634
     32 H3         -0.4451    1.8278    0.8007 H         1 <0>         0.0636
     33 H4         -3.3966   -2.2382   -0.0273 H         1 <0>         0.1675
     34 H5          0.9790   -2.4931   -0.0932 H         1 <0>         0.2106
     35 H6         -5.9344   -5.4487   -2.5430 H         1 <0>         0.0892
     36 H7         -5.4117   -3.9940   -1.6544 H         1 <0>         0.1079
     37 H8         -5.2378   -3.8284   -4.2038 H         1 <0>         0.1116
     38 H9         -3.7266   -3.4896   -3.3202 H         1 <0>         0.0770
     39 H10        -2.4522   -6.9731   -4.2181 H         1 <0>         0.1034
     40 H11        -1.9295   -5.5183   -3.3294 H         1 <0>         0.0803
     41 H12        -2.6197   -7.1324   -1.6716 H         1 <0>         0.1089
     42 H13        -4.1302   -7.4768   -2.5541 H         1 <0>         0.0885
     43 H14        -1.4323   -5.7483   -5.9215 H         1 <0>         0.1427
     44 H15        -1.3654   -9.3221   -8.2683 H         1 <0>         0.1388
     45 H16        -3.8138   -9.4756   -8.1220 H         1 <0>         0.1460
     46 H17         2.0570   -8.8899   -8.3301 H         1 <0>         0.1142
     47 H18         0.6474   -9.7755   -7.6999 H         1 <0>         0.0879
     48 H19         0.4975   -8.8042   -9.1839 H         1 <0>         0.0873
@<TRIPOS>BOND
     1    1    2 1
     2    1   30 1
     3    1   31 1
     4    1   32 1
     5    2    3 1
     6    3    4 2
     7    3    5 1
     8    5    9 2
     9    5    6 1
    10    6    7 2
    11    6   33 1
    12    7    8 1
    13    7   10 1
    14    8    9 1
    15    9   34 1
    16   10   11 2
    17   10   12 2
    18   10   13 1
    19   13   18 1
    20   13   14 1
    21   14   15 1
    22   14   35 1
    23   14   36 1
    24   15   16 1
    25   15   37 1
    26   15   38 1
    27   16   17 1
    28   16   19 am
    29   17   18 1
    30   17   39 1
    31   17   40 1
    32   18   41 1
    33   18   42 1
    34   19   20 2
    35   19   21 1
    36   21   26 ar
    37   21   22 ar
    38   22   23 ar
    39   22   43 1
    40   23   24 ar
    41   23   28 1
    42   24   25 ar
    43   24   44 1
    44   25   26 ar
    45   25   45 1
    46   26   27 1
    47   28   29 1
    48   29   46 1
    49   29   47 1
    50   29   48 1
@<TRIPOS>MOLECULE
ZINC14207242
   46    47     0     0     0
SMALL
USER_CHARGES

@<TRIPOS>ATOM
      1 C1          0.0797    1.5147   -0.3874 C.3       1 <0>        -0.1793
      2 C2          0.1446   -0.0122   -0.3154 C.3       1 <0>         0.1093
      3 N1          0.8123   -0.4147    0.9250 N.pl3     1 <0>        -1.0055
      4 C3          0.0437   -0.5288    2.1669 C.3       1 <0>         0.1232
      5 C4         -0.6051   -1.9125    2.2398 C.3       1 <0>        -0.1758
      6 S1          2.4359   -0.7405    0.9232 S.o2      1 <0>         2.7786
      7 O1          2.6538   -1.7245    1.9250 O.2       1 <0>        -0.9677
      8 O2          2.8088   -0.9392   -0.4336 O.2       1 <0>        -0.9701
      9 N2          3.2113    0.6317    1.4311 N.pl3     1 <0>        -1.0039
     10 C5          3.5831    1.6799    0.4704 C.3       1 <0>         0.1086
     11 C6          2.9788    3.0098    0.9378 C.3       1 <0>         0.0922
     12 N3          3.3071    3.2015    2.3575 N.pl3     1 <0>        -0.9873
     13 C7          2.9353    2.1534    3.3182 C.3       1 <0>         0.1018
     14 C8          3.5345    0.8260    2.8516 C.3       1 <0>         0.1070
     15 S2          4.0824    4.5738    2.8654 S.o2      1 <0>         2.6853
     16 O3          4.7376    4.2433    4.0823 O.2       1 <0>        -0.9425
     17 O4          4.7808    5.0862    1.7389 O.2       1 <0>        -0.9309
     18 C9          2.8393    5.7560    3.2676 C.ar      1 <0>        -0.6648
     19 C10         2.6951    6.1906    4.5720 C.ar      1 <0>        -0.0018
     20 C11         1.7202    7.1178    4.8881 C.ar      1 <0>        -0.1052
     21 C12         0.8880    7.6116    3.8993 C.ar      1 <0>        -0.0308
     22 C13         1.0320    7.1777    2.5942 C.ar      1 <0>        -0.1013
     23 C14         2.0115    6.2534    2.2771 C.ar      1 <0>         0.0572
     24 Cl1         2.1969    5.7125    0.6380 Cl        1 <0>        -0.0286
     25 Br1        -0.4465    8.8794    4.3325 Br        1 <0>        -0.0147
     26 H1          1.0888    1.9177   -0.4725 H         1 <0>         0.0562
     27 H2         -0.5052    1.8128   -1.2576 H         1 <0>         0.0719
     28 H3         -0.3910    1.9013    0.5165 H         1 <0>         0.0618
     29 H4         -0.8660   -0.4201   -0.3328 H         1 <0>         0.0838
     30 H5          0.7048   -0.3928   -1.1695 H         1 <0>         0.0928
     31 H6          0.7090   -0.3941    3.0197 H         1 <0>         0.0757
     32 H7         -0.7314    0.2374    2.1862 H         1 <0>         0.0790
     33 H8         -1.1770   -1.9974    3.1638 H         1 <0>         0.0685
     34 H9         -1.2705   -2.0472    1.3870 H         1 <0>         0.0594
     35 H10         0.1699   -2.6787    2.2205 H         1 <0>         0.0651
     36 H11         4.6687    1.7669    0.4258 H         1 <0>         0.0861
     37 H12         3.1931    1.4274   -0.5156 H         1 <0>         0.1029
     38 H13         3.3976    3.8279    0.3518 H         1 <0>         0.1083
     39 H14         1.8963    2.9837    0.8129 H         1 <0>         0.0835
     40 H15         3.3253    2.4059    4.3042 H         1 <0>         0.1095
     41 H16         1.8497    2.0663    3.3628 H         1 <0>         0.0784
     42 H17         3.1125    0.0097    3.4377 H         1 <0>         0.1064
     43 H18         4.6166    0.8508    2.9804 H         1 <0>         0.0855
     44 H19         3.3442    5.8052    5.3443 H         1 <0>         0.1638
     45 H20         1.6077    7.4567    5.9074 H         1 <0>         0.1533
     46 H21         0.3826    7.5629    1.8221 H         1 <0>         0.1549
@<TRIPOS>BOND
     1    1    2 1
     2    1   26 1
     3    1   27 1
     4    1   28 1
     5    2    3 1
     6    2   29 1
     7    2   30 1
     8    3    4 1
     9    3    6 1
    10    4    5 1
    11    4   31 1
    12    4   32 1
    13    5   33 1
    14    5   34 1
    15    5   35 1
    16    6    7 2
    17    6    8 2
    18    6    9 1
    19    9   14 1
    20    9   10 1
    21   10   11 1
    22   10   36 1
    23   10   37 1
    24   11   12 1
    25   11   38 1
    26   11   39 1
    27   12   13 1
    28   12   15 1
    29   13   14 1
    30   13   40 1
    31   13   41 1
    32   14   42 1
    33   14   43 1
    34   15   16 2
    35   15   17 2
    36   15   18 1
    37   18   23 ar
    38   18   19 ar
    39   19   20 ar
    40   19   44 1
    41   20   21 ar
    42   20   45 1
    43   21   22 ar
    44   21   25 1
    45   22   23 ar
    46   22   46 1
    47   23   24 1
@<TRIPOS>MOLECULE
ZINC09387595
   52    54     0     0     0
SMALL
USER_CHARGES
N-(5-chloro-4-methyl-benzothiazol-2-yl)-N-(2-dimethylaminoethyl)-2-(4-fluorophenyl)sulfonyl-acetamide
@<TRIPOS>ATOM
      1 C1         -1.9344    4.7280    5.2839 C.3       1 <0>        -0.1255
      2 C2         -0.8305    5.2818    4.4203 C.ar      1 <0>        -0.0054
      3 C3         -0.2645    6.4909    4.7354 C.ar      1 <0>        -0.0311
      4 C4          0.7541    7.0367    3.9664 C.ar      1 <0>        -0.0683
      5 C5          1.2093    6.3468    2.8575 C.ar      1 <0>        -0.0611
      6 C6          0.6487    5.1366    2.5350 C.ar      1 <0>        -0.1286
      7 C7         -0.3897    4.5496    3.2940 C.ar      1 <0>         0.0981
      8 N1         -0.8362    3.3552    2.8490 N.2       1 <0>        -0.4723
      9 C8         -0.3433    2.7706    1.7821 C.2       1 <0>         0.3373
     10 S1          0.9077    3.9328    1.2542 S.3       1 <0>         0.0083
     11 N2         -0.6984    1.5583    1.2133 N.am      1 <0>        -0.4998
     12 C9         -0.0127    1.0858    0.0080 C.3       1 <0>         0.0759
     13 C10        -0.7527    1.5927   -1.2315 C.3       1 <0>        -0.0400
     14 C11        -0.8699    1.3814   -3.6407 C.3       1 <0>        -0.0440
     15 C12         1.2687    1.7231   -2.5580 C.3       1 <0>        -0.0542
     16 C13        -1.6747    0.8135    1.7689 C.2       1 <0>         0.5364
     17 O1         -2.2423    1.2046    2.7666 O.2       1 <0>        -0.4288
     18 C14        -2.0610   -0.5052    1.1503 C.3       1 <0>        -0.6706
     19 S2         -3.3934   -1.2616    2.1214 S.o2      1 <0>         2.5304
     20 O2         -2.9091   -1.6457    3.4010 O.2       1 <0>        -0.8978
     21 O3         -4.5844   -0.4965    1.9974 O.2       1 <0>        -0.9007
     22 C15        -3.7467   -2.7799    1.3001 C.ar      1 <0>        -0.6880
     23 C16        -4.7018   -2.8189    0.3014 C.ar      1 <0>         0.0052
     24 C17        -4.9763   -4.0081   -0.3468 C.ar      1 <0>        -0.1735
     25 C18        -4.3019   -5.1630    0.0116 C.ar      1 <0>         0.1664
     26 C19        -3.3493   -5.1238    1.0156 C.ar      1 <0>        -0.1716
     27 C20        -3.0727   -3.9323    1.6588 C.ar      1 <0>         0.0081
     28 F1         -4.5728   -6.3272   -0.6182 F         1 <0>        -0.1218
     29 Cl1        -0.8353    7.3582    6.1267 Cl        1 <0>        -0.0371
     30 H1         -1.5036    4.1157    6.0760 H         1 <0>         0.0859
     31 H2         -2.4973    5.5502    5.7256 H         1 <0>         0.0813
     32 H3         -2.6009    4.1175    4.6745 H         1 <0>         0.0851
     33 H4          1.1869    7.9900    4.2314 H         1 <0>         0.1575
     34 H5          2.0013    6.7580    2.2492 H         1 <0>         0.1489
     35 H6          0.0021   -0.0041    0.0020 H         1 <0>         0.1292
     36 H7          1.0099    1.4631    0.0003 H         1 <0>         0.1196
     37 H8         -1.7753    1.2154   -1.2238 H         1 <0>         0.1410
     38 H9         -0.7675    2.6825   -1.2255 H         1 <0>         0.1458
     39 H10        -1.0432    2.4534   -3.7347 H         1 <0>         0.1271
     40 H11        -0.3376    1.0208   -4.5209 H         1 <0>         0.1296
     41 H12        -1.8260    0.8647   -3.5573 H         1 <0>         0.1247
     42 H13         1.8673    1.4548   -1.6875 H         1 <0>         0.1227
     43 H14         1.7557    1.3553   -3.4612 H         1 <0>         0.1317
     44 H15         1.1728    2.8075   -2.6128 H         1 <0>         0.1295
     45 H16        -2.4042   -0.3407    0.1289 H         1 <0>         0.1647
     46 H17        -1.1965   -1.1691    1.1406 H         1 <0>         0.1756
     47 H18        -5.2306   -1.9188    0.0248 H         1 <0>         0.1542
     48 H19        -5.7195   -4.0375   -1.1299 H         1 <0>         0.1516
     49 H20        -2.8223   -6.0240    1.2958 H         1 <0>         0.1527
     50 H21        -2.3294   -3.9014    2.4418 H         1 <0>         0.1559
     51 N3         -0.0617    1.0905   -2.4378 N.4       1 <0>        -0.3936
     52 H22         0.0585    0.0742   -2.3545 H         1 <0>         0.4333
@<TRIPOS>BOND
     1    1    2 1
     2    1   30 1
     3    1   31 1
     4    1   32 1
     5    2    7 ar
     6    2    3 ar
     7    3    4 ar
     8    3   29 1
     9    4    5 ar
    10    4   33 1
    11    5    6 ar
    12    5   34 1
    13    6   10 1
    14    6    7 ar
    15    7    8 1
    16    8    9 2
    17    9   10 1
    18    9   11 1
    19   11   12 1
    20   11   16 am
    21   12   13 1
    22   12   35 1
    23   12   36 1
    24   13   37 1
    25   13   38 1
    26   13   51 1
    27   14   39 1
    28   14   40 1
    29   14   41 1
    30   14   51 1
    31   15   42 1
    32   15   43 1
    33   15   44 1
    34   15   51 1
    35   16   17 2
    36   16   18 1
    37   18   19 1
    38   18   45 1
    39   18   46 1
    40   19   20 2
    41   19   21 2
    42   19   22 1
    43   22   27 ar
    44   22   23 ar
    45   23   24 ar
    46   23   47 1
    47   24   25 ar
    48   24   48 1
    49   25   26 ar
    50   25   28 1
    51   26   27 ar
    52   26   49 1
    53   27   50 1
    54   51   52 1
@<TRIPOS>MOLECULE
ZINC13595736
   48    50     0     0     0
SMALL
USER_CHARGES
N-(6-bromo-1,3-benzothiazol-2-yl)-N-(2-diethylaminoethyl)-3-methyl-isoxazole-5-carboxamide
@<TRIPOS>ATOM
      1 C1         -5.0473    3.9475    0.9174 C.3       1 <0>        -0.1897
      2 C2         -3.9559    2.8900    1.0945 C.3       1 <0>        -0.0142
      3 C3         -2.7669    4.1921    2.7538 C.3       1 <0>        -0.0104
      4 C4         -1.6616    5.2431    2.8750 C.3       1 <0>        -0.1893
      5 C5         -1.5697    2.5961    1.3819 C.3       1 <0>        -0.0323
      6 C6         -1.2131    2.3110   -0.0784 C.3       1 <0>         0.0763
      7 N1         -0.0232    1.4581   -0.1329 N.am      1 <0>        -0.5006
      8 C7         -0.1597    0.0878   -0.2713 C.2       1 <0>         0.3498
      9 N2          0.7764   -0.8298   -0.3434 N.2       1 <0>        -0.4862
     10 C8          0.4957   -2.1441   -0.4788 C.ar      1 <0>         0.1067
     11 C9          1.4024   -3.2257   -0.5682 C.ar      1 <0>        -0.0468
     12 C10         0.9480   -4.5111   -0.7045 C.ar      1 <0>        -0.0754
     13 C11        -0.4091   -4.7986   -0.7597 C.ar      1 <0>        -0.0671
     14 C12        -1.3243   -3.7645   -0.6753 C.ar      1 <0>        -0.0329
     15 C13        -0.8775   -2.4739   -0.5386 C.ar      1 <0>        -0.1373
     16 S1         -1.6553   -0.8835   -0.3895 S.3       1 <0>         0.0246
     17 Br1        -1.0005   -6.5849   -0.9478 Br        1 <0>        -0.0121
     18 C14         1.2046    2.0084   -0.0537 C.2       1 <0>         0.6030
     19 O1          2.1892    1.2960   -0.0221 O.2       1 <0>        -0.4091
     20 C15         1.3535    3.4745   -0.0055 C.2       1 <0>        -0.1054
     21 C16         2.5235    4.1840   -0.0386 C.2       1 <0>        -0.1110
     22 C17         2.1040    5.5309    0.0334 C.2       1 <0>         0.0387
     23 N3          0.8045    5.5124    0.0991 N.2       1 <0>        -0.3366
     24 O2          0.3659    4.3862    0.0740 O.3       1 <0>         0.0822
     25 C18         2.9886    6.7509    0.0337 C.3       1 <0>        -0.0886
     26 H1         -5.9884    3.4595    0.6639 H         1 <0>         0.1093
     27 H2         -5.1661    4.5060    1.8459 H         1 <0>         0.0824
     28 H3         -4.7648    4.6305    0.1162 H         1 <0>         0.0823
     29 H4         -3.8370    2.3315    0.1660 H         1 <0>         0.1284
     30 H5         -4.2383    2.2070    1.8957 H         1 <0>         0.1365
     31 H6         -3.7389    4.6726    2.8654 H         1 <0>         0.1376
     32 H7         -2.6412    3.4411    3.5337 H         1 <0>         0.1327
     33 H8         -1.8368    6.0396    2.1518 H         1 <0>         0.0857
     34 H9         -1.6651    5.6596    3.8823 H         1 <0>         0.1080
     35 H10        -0.6955    4.7788    2.6772 H         1 <0>         0.0734
     36 H11        -1.8592    1.6672    1.8733 H         1 <0>         0.1454
     37 H12        -0.7050    3.0221    1.8906 H         1 <0>         0.1368
     38 H13        -1.0108    3.2503   -0.5931 H         1 <0>         0.1310
     39 H14        -2.0467    1.8031   -0.5635 H         1 <0>         0.1207
     40 H15         2.4650   -3.0364   -0.5288 H         1 <0>         0.1497
     41 H16         1.6617   -5.3190   -0.7701 H         1 <0>         0.1521
     42 H17        -2.3835   -3.9715   -0.7163 H         1 <0>         0.1486
     43 H18         3.5319    3.8031   -0.1044 H         1 <0>         0.1942
     44 H19         3.1492    7.0835   -0.9918 H         1 <0>         0.0932
     45 H20         2.5092    7.5472    0.6030 H         1 <0>         0.0862
     46 H21         3.9473    6.5045    0.4901 H         1 <0>         0.0934
     47 N4         -2.6827    3.5682    1.4166 N.4       1 <0>        -0.3934
     48 H22        -2.5084    4.2998    0.7176 H         1 <0>         0.4294
@<TRIPOS>BOND
     1    1    2 1
     2    1   26 1
     3    1   27 1
     4    1   28 1
     5    2   29 1
     6    2   30 1
     7    2   47 1
     8    3    4 1
     9    3   31 1
    10    3   32 1
    11    3   47 1
    12    4   33 1
    13    4   34 1
    14    4   35 1
    15    5    6 1
    16    5   36 1
    17    5   37 1
    18    5   47 1
    19    6    7 1
    20    6   38 1
    21    6   39 1
    22    7    8 1
    23    7   18 am
    24    8   16 1
    25    8    9 2
    26    9   10 1
    27   10   15 ar
    28   10   11 ar
    29   11   12 ar
    30   11   40 1
    31   12   13 ar
    32   12   41 1
    33   13   14 ar
    34   13   17 1
    35   14   15 ar
    36   14   42 1
    37   15   16 1
    38   18   19 2
    39   18   20 1
    40   20   24 1
    41   20   21 2
    42   21   22 1
    43   21   43 1
    44   22   23 2
    45   22   25 1
    46   23   24 1
    47   25   44 1
    48   25   45 1
    49   25   46 1
    50   47   48 1
@<TRIPOS>MOLECULE
ZINC31056554
   63    67     0     0     0
SMALL
USER_CHARGES
(4-benzyl-1-piperidyl)-[(3R)-1-[[3-(2-thienyl)-1,2,4-oxadiazol-5-yl]methyl]-3-piperidyl]methanone
@<TRIPOS>ATOM
      1 C1         -4.4614   -8.6281   11.3948 C.ar      1 <0>        -0.1221
      2 C2         -5.0203   -7.6200   10.6318 C.ar      1 <0>        -0.1184
      3 C3         -5.6160   -7.9190    9.4208 C.ar      1 <0>        -0.1203
      4 C4         -5.6524   -9.2262    8.9725 C.ar      1 <0>        -0.0832
      5 C5         -5.0983  -10.2351    9.7380 C.ar      1 <0>        -0.1173
      6 C6         -4.4987   -9.9354   10.9470 C.ar      1 <0>        -0.1151
      7 C7         -6.3018   -9.5522    7.6523 C.3       1 <0>        -0.0787
      8 C8         -5.2585   -9.4683    6.5363 C.3       1 <0>        -0.0813
      9 C9         -5.8869   -9.9197    5.2159 C.3       1 <0>        -0.1328
     10 C10        -4.8303   -9.8673    4.1079 C.3       1 <0>         0.1071
     11 N1         -4.2510   -8.5176    4.0702 N.am      1 <0>        -0.5986
     12 C11        -3.6950   -7.9527    5.3073 C.3       1 <0>         0.0984
     13 C12        -4.7694   -8.0243    6.4031 C.3       1 <0>        -0.1341
     14 C13        -4.2251   -7.8133    2.9214 C.2       1 <0>         0.5236
     15 O1         -4.7694   -8.2505    1.9297 O.2       1 <0>        -0.5283
     16 C14        -3.5198   -6.4826    2.8692 C.3       1 <0>        -0.1347
     17 H1         -2.7450   -6.4670    3.6499 H         1 <0>         0.1192
     18 C15        -4.5307   -5.3583    3.1111 C.3       1 <0>        -0.1285
     19 C16        -3.8177   -4.0081    2.9968 C.3       1 <0>        -0.1389
     20 C17        -3.1680   -3.8951    1.6159 C.3       1 <0>        -0.0146
     21 N2         -2.2091   -4.9922    1.4334 N.4       1 <0>        -0.3995
     22 C18        -2.8786   -6.2979    1.4919 C.3       1 <0>         0.0121
     23 C19        -1.4654   -4.8378    0.1760 C.3       1 <0>         0.1069
     24 C20        -0.9997   -3.4111    0.0398 C.2       1 <0>         0.1091
     25 N3          0.1381   -2.9213    0.4638 N.2       1 <0>        -0.4241
     26 C21         0.1180   -1.6103    0.1261 C.2       1 <0>         0.2793
     27 N4         -1.0189   -1.3875   -0.4861 N.2       1 <0>        -0.3363
     28 O2         -1.6683   -2.4104   -0.5422 O.3       1 <0>         0.1131
     29 C22         1.1806   -0.6191    0.3921 C.2       1 <0>        -0.1516
     30 C23         1.2191    0.7122    0.0716 C.2       1 <0>        -0.0782
     31 C24         2.3279    1.4466    0.4256 C.2       1 <0>        -0.1726
     32 C25         3.3478    0.8319    1.0800 C.2       1 <0>        -0.1360
     33 S1          2.7490   -0.8445    1.2150 S.3       1 <0>         0.1338
     34 H2         -3.9954   -8.3944   12.3406 H         1 <0>         0.1224
     35 H3         -4.9911   -6.5986   10.9816 H         1 <0>         0.1214
     36 H4         -6.0525   -7.1314    8.8246 H         1 <0>         0.1183
     37 H5         -5.1306  -11.2569    9.3899 H         1 <0>         0.1210
     38 H6         -4.0618  -10.7230   11.5430 H         1 <0>         0.1231
     39 H7         -6.7177  -10.5698    7.6897 H         1 <0>         0.0776
     40 H8         -7.1099   -8.8329    7.4536 H         1 <0>         0.0736
     41 H9         -4.4078  -10.1220    6.7792 H         1 <0>         0.0776
     42 H10        -6.2599  -10.9492    5.3204 H         1 <0>         0.0841
     43 H11        -6.7222   -9.2513    4.9599 H         1 <0>         0.0705
     44 H12        -4.0423  -10.6056    4.3175 H         1 <0>         0.0765
     45 H13        -5.3012  -10.0981    3.1410 H         1 <0>         0.0990
     46 H14        -2.8110   -8.5329    5.6104 H         1 <0>         0.0792
     47 H15        -3.4049   -6.9058    5.1344 H         1 <0>         0.0836
     48 H16        -5.6148   -7.3742    6.1336 H         1 <0>         0.0694
     49 H17        -4.3421   -7.6921    7.3607 H         1 <0>         0.0875
     50 H18        -5.3320   -5.4178    2.3598 H         1 <0>         0.0954
     51 H19        -4.9628   -5.4639    4.1171 H         1 <0>         0.1011
     52 H20        -4.5476   -3.1957    3.1281 H         1 <0>         0.1218
     53 H21        -3.0438   -3.9350    3.7751 H         1 <0>         0.0928
     54 H22        -3.9447   -3.9546    0.8393 H         1 <0>         0.1408
     55 H23        -2.6423   -2.9322    1.5357 H         1 <0>         0.1212
     56 H24        -2.1409   -7.0957    1.3210 H         1 <0>         0.1431
     57 H25        -3.6567   -6.3456    0.7158 H         1 <0>         0.1488
     58 H26        -0.5940   -5.5091    0.1806 H         1 <0>         0.1792
     59 H27        -2.1198   -5.0923   -0.6707 H         1 <0>         0.1698
     60 H28         0.3967    1.1757   -0.4530 H         1 <0>         0.1434
     61 H29         2.3868    2.4980    0.1860 H         1 <0>         0.1504
     62 H30         4.2806    1.2499    1.4287 H         1 <0>         0.2009
     63 H31        -1.4875   -4.9480    2.2624 H         1 <0>         0.4493
@<TRIPOS>BOND
     1    1    6 ar
     2    1    2 ar
     3    1   34 1
     4    2    3 ar
     5    2   35 1
     6    3    4 ar
     7    3   36 1
     8    4    5 ar
     9    4    7 1
    10    5    6 ar
    11    5   37 1
    12    6   38 1
    13    7    8 1
    14    7   39 1
    15    7   40 1
    16    8   13 1
    17    8    9 1
    18    8   41 1
    19    9   10 1
    20    9   42 1
    21    9   43 1
    22   10   11 1
    23   10   44 1
    24   10   45 1
    25   11   12 1
    26   11   14 am
    27   12   13 1
    28   12   46 1
    29   12   47 1
    30   13   48 1
    31   13   49 1
    32   14   15 2
    33   14   16 1
    34   16   17 1
    35   16   22 1
    36   16   18 1
    37   18   19 1
    38   18   50 1
    39   18   51 1
    40   19   20 1
    41   19   52 1
    42   19   53 1
    43   20   21 1
    44   20   54 1
    45   20   55 1
    46   21   22 1
    47   21   23 1
    48   21   63 1
    49   22   56 1
    50   22   57 1
    51   23   24 1
    52   23   58 1
    53   23   59 1
    54   24   28 1
    55   24   25 2
    56   25   26 1
    57   26   27 2
    58   26   29 1
    59   27   28 1
    60   29   33 1
    61   29   30 2
    62   30   31 1
    63   30   60 1
    64   31   32 2
    65   31   61 1
    66   32   33 1
    67   32   62 1
@<TRIPOS>MOLECULE
ZINC40023356
   55    59     0     0     0
SMALL
USER_CHARGES

@<TRIPOS>ATOM
      1 C1         -0.0184    1.5028    0.0103 C.3       1 <0>        -0.0821
      2 C2          0.0021   -0.0041    0.0020 C.ar      1 <0>         0.3517
      3 N1          0.0053   -0.6421   -1.1530 N.ar      1 <0>        -0.4655
      4 C3          0.0236   -1.9609   -1.1831 C.ar      1 <0>         0.1279
      5 C4          0.0401   -2.7226   -0.0003 C.ar      1 <0>        -0.1492
      6 C5          0.0606   -4.1838   -0.1760 C.2       1 <0>        -0.1367
      7 C6          0.0634   -4.6435   -1.4376 C.2       1 <0>        -0.1425
      8 S1          0.0352   -3.1889   -2.4606 S.3       1 <0>         0.1801
      9 C7          0.0906   -6.1475   -1.4945 C.3       1 <0>        -0.0426
     10 C8          0.5394   -6.5809   -0.0817 C.3       1 <0>        -0.1146
     11 C9          0.0775   -5.3850    0.7739 C.3       1 <0>        -0.0645
     12 C10         0.0352   -1.9781    1.2111 C.ar      1 <0>         0.1736
     13 N2          0.0218   -0.6550    1.1508 N.ar      1 <0>        -0.4830
     14 S2          0.0542   -2.8027    2.7681 S.3       1 <0>         0.2244
     15 C11         0.0411   -1.4915    3.9450 C.2       1 <0>         0.1609
     16 N3          0.0158   -0.2060    3.6812 N.2       1 <0>        -0.2066
     17 N4          0.0134    0.4656    4.7769 N.2       1 <0>        -0.2556
     18 C12         0.0368   -0.3435    5.7988 C.2       1 <0>         0.1207
     19 N5          0.0493   -1.6204    5.3066 N.pl3     1 <0>        -0.3948
     20 C13         0.0691   -2.8135    6.0450 C.ar      1 <0>         0.0600
     21 C14        -1.0143   -3.1549    6.8427 C.ar      1 <0>        -0.0765
     22 C15        -0.9933   -4.3298    7.5685 C.ar      1 <0>        -0.1366
     23 C16         0.1078   -5.1668    7.5010 C.ar      1 <0>         0.1390
     24 C17         1.1897   -4.8275    6.7059 C.ar      1 <0>        -0.1309
     25 C18         1.1696   -3.6564    5.9740 C.ar      1 <0>        -0.0630
     26 F1          0.1268   -6.3154    8.2119 F         1 <0>        -0.1178
     27 C19         0.0424    0.0535    7.2525 C.3       1 <0>         0.1315
     28 H1         -0.2023   -0.8130    7.8668 H         1 <0>         0.1494
     29 C20         1.4300    0.5735    7.6338 C.3       1 <0>        -0.1787
     30 N6         -0.9544    1.1092    7.4757 N.4       1 <0>        -0.3816
     31 C21        -2.2866    0.6100    7.1096 C.3       1 <0>        -0.0504
     32 C22        -0.9489    1.4963    8.8928 C.3       1 <0>        -0.0520
     33 H2          1.0042    1.8801    0.0026 H         1 <0>         0.0928
     34 H3         -0.5455    1.8639   -0.8728 H         1 <0>         0.0924
     35 H4         -0.5286    1.8543    0.9071 H         1 <0>         0.0928
     36 H5         -0.9031   -6.5378   -1.7144 H         1 <0>         0.0977
     37 H6          0.8075   -6.4869   -2.2421 H         1 <0>         0.0916
     38 H7          0.0349   -7.4975    0.2240 H         1 <0>         0.0922
     39 H8          1.6220   -6.6989   -0.0351 H         1 <0>         0.0825
     40 H9          0.7797   -5.2111    1.5892 H         1 <0>         0.0752
     41 H10        -0.9220   -5.5677    1.1686 H         1 <0>         0.0870
     42 H11        -1.8729   -2.5020    6.8962 H         1 <0>         0.1386
     43 H12        -1.8361   -4.5957    8.1893 H         1 <0>         0.1568
     44 H13         2.0479   -5.4811    6.6550 H         1 <0>         0.1591
     45 H14         2.0115   -3.3945    5.3503 H         1 <0>         0.1478
     46 H15         2.1696   -0.2099    7.4683 H         1 <0>         0.1065
     47 H16         1.6747    1.4400    7.0196 H         1 <0>         0.0951
     48 H17         1.4340    0.8606    8.6853 H         1 <0>         0.0993
     49 H18        -2.5313   -0.2565    7.7239 H         1 <0>         0.1212
     50 H19        -3.0263    1.3934    7.2752 H         1 <0>         0.1349
     51 H20        -2.2907    0.3229    6.0581 H         1 <0>         0.1167
     52 H21         0.0396    1.8666    9.1644 H         1 <0>         0.1305
     53 H22        -1.6886    2.2796    9.0584 H         1 <0>         0.1334
     54 H23        -1.1936    0.6297    9.5070 H         1 <0>         0.1248
     55 H24        -0.7278    1.9114    6.9071 H         1 <0>         0.4371
@<TRIPOS>BOND
     1    1    2 1
     2    1   33 1
     3    1   34 1
     4    1   35 1
     5    2   13 ar
     6    2    3 ar
     7    3    4 ar
     8    4    8 1
     9    4    5 ar
    10    5    6 1
    11    5   12 ar
    12    6   11 1
    13    6    7 2
    14    7    8 1
    15    7    9 1
    16    9   10 1
    17    9   36 1
    18    9   37 1
    19   10   11 1
    20   10   38 1
    21   10   39 1
    22   11   40 1
    23   11   41 1
    24   12   13 ar
    25   12   14 1
    26   14   15 1
    27   15   19 1
    28   15   16 2
    29   16   17 1
    30   17   18 2
    31   18   19 1
    32   18   27 1
    33   19   20 1
    34   20   25 ar
    35   20   21 ar
    36   21   22 ar
    37   21   42 1
    38   22   23 ar
    39   22   43 1
    40   23   24 ar
    41   23   26 1
    42   24   25 ar
    43   24   44 1
    44   25   45 1
    45   27   28 1
    46   27   29 1
    47   27   30 1
    48   29   46 1
    49   29   47 1
    50   29   48 1
    51   30   31 1
    52   30   32 1
    53   30   55 1
    54   31   49 1
    55   31   50 1
    56   31   51 1
    57   32   52 1
    58   32   53 1
    59   32   54 1
@<TRIPOS>MOLECULE
ZINC39791665
   56    60     0     0     0
SMALL
USER_CHARGES

@<TRIPOS>ATOM
      1 C1          0.0543    1.4167    0.0539 C.ar      1 <0>        -0.0832
      2 C2          1.2485    2.1127    0.0370 C.ar      1 <0>        -0.1068
      3 C3          2.4482    1.4265    0.0108 C.ar      1 <0>        -0.0697
      4 C4          2.4537    0.0441    0.0018 C.ar      1 <0>        -0.1326
      5 C5          1.2595   -0.6519    0.0195 C.ar      1 <0>        -0.1051
      6 C6          0.0598    0.0344    0.0443 C.ar      1 <0>        -0.1105
      7 C7          3.7615   -0.7040   -0.0279 C.3       1 <0>         0.1637
      8 H1          4.5690   -0.0612    0.3228 H         1 <0>         0.1888
      9 C8          4.0531   -1.1875   -1.4316 C.2       1 <0>        -0.0213
     10 C9          4.1158   -2.5665   -1.3438 C.ar      1 <0>        -0.0807
     11 C10         4.3531   -3.5819   -2.3002 C.ar      1 <0>        -0.0745
     12 C11         4.3565   -4.8814   -1.9277 C.ar      1 <0>        -0.0999
     13 C12         4.1301   -5.2862   -0.6024 C.ar      1 <0>         0.0296
     14 C13         3.8943   -4.3969    0.3863 C.ar      1 <0>        -0.1784
     15 C14         3.8733   -2.9599    0.0660 C.ar      1 <0>         0.3256
     16 N1          3.6743   -1.9060    0.8073 N.pl3     1 <0>        -0.5380
     17 C15         4.2255   -0.3972   -2.5878 C.2       1 <0>         0.3872
     18 O1          4.1428    0.8120   -2.5146 O.2       1 <0>        -0.3517
     19 C16         4.5123   -1.0540   -3.9135 C.3       1 <0>         0.0215
     20 O2          4.6450   -0.0514   -4.9230 O.3       1 <0>        -0.3300
     21 C17         4.9048   -0.4750   -6.1755 C.2       1 <0>         0.5229
     22 O3          5.0156   -1.6631   -6.4043 O.2       1 <0>        -0.5027
     23 C18         5.0546    0.5035   -7.2686 C.ar      1 <0>        -0.1699
     24 C19         4.9331    1.8713   -7.0061 C.ar      1 <0>        -0.0242
     25 C20         5.0740    2.7818   -8.0288 C.ar      1 <0>        -0.1767
     26 C21         5.3365    2.3423   -9.3226 C.ar      1 <0>         0.2171
     27 C22         5.4576    0.9816   -9.5876 C.ar      1 <0>        -0.1743
     28 C23         5.3241    0.0658   -8.5687 C.ar      1 <0>        -0.0153
     29 N2          5.4782    3.2673  -10.3560 N.am      1 <0>        -0.5619
     30 C24         5.8671    2.9225  -11.7285 C.3       1 <0>         0.0900
     31 C25         5.4744    4.1449  -12.5876 C.3       1 <0>        -0.1323
     32 C26         5.5088    5.2868  -11.5455 C.3       1 <0>        -0.1543
     33 C27         5.2704    4.5888  -10.2247 C.2       1 <0>         0.5180
     34 O4          4.9422    5.1416   -9.1964 O.2       1 <0>        -0.4993
     35 H2         -0.8829    1.9528    0.0789 H         1 <0>         0.1385
     36 H3          1.2442    3.1927    0.0441 H         1 <0>         0.1411
     37 H4          3.3812    1.9703   -0.0031 H         1 <0>         0.1384
     38 H5          1.2637   -1.7319    0.0121 H         1 <0>         0.1172
     39 H6         -0.8732   -0.5094    0.0578 H         1 <0>         0.1367
     40 H7          4.5319   -3.3177   -3.3320 H         1 <0>         0.1643
     41 H8          4.5400   -5.6365   -2.6777 H         1 <0>         0.1640
     42 H9          4.1447   -6.3400   -0.3667 H         1 <0>         0.1706
     43 H10         3.7235   -4.7350    1.3976 H         1 <0>         0.1724
     44 H11         5.4387   -1.6241   -3.8436 H         1 <0>         0.1161
     45 H12         3.6922   -1.7237   -4.1722 H         1 <0>         0.1151
     46 H13         4.7287    2.2131   -6.0022 H         1 <0>         0.1432
     47 H14         4.9803    3.8386   -7.8267 H         1 <0>         0.1657
     48 H15         5.6607    0.6440  -10.5932 H         1 <0>         0.1404
     49 H16         5.4230   -0.9898   -8.7742 H         1 <0>         0.1446
     50 H17         6.9423    2.7521  -11.7843 H         1 <0>         0.0884
     51 H18         5.3263    2.0371  -12.0627 H         1 <0>         0.0922
     52 H19         6.2043    4.3165  -13.3786 H         1 <0>         0.1019
     53 H20         4.4733    4.0250  -13.0019 H         1 <0>         0.0893
     54 H21         6.4813    5.7791  -11.5512 H         1 <0>         0.1151
     55 H22         4.7145    6.0068  -11.7422 H         1 <0>         0.1126
     56 H23         3.4961   -1.9149    1.7608 H         1 <0>         0.4610
@<TRIPOS>BOND
     1    1    6 ar
     2    1    2 ar
     3    1   35 1
     4    2    3 ar
     5    2   36 1
     6    3    4 ar
     7    3   37 1
     8    4    5 ar
     9    4    7 1
    10    5    6 ar
    11    5   38 1
    12    6   39 1
    13    7    8 1
    14    7   16 1
    15    7    9 1
    16    9   10 2
    17    9   17 1
    18   10   15 ar
    19   10   11 ar
    20   11   12 ar
    21   11   40 1
    22   12   13 ar
    23   12   41 1
    24   13   14 ar
    25   13   42 1
    26   14   15 ar
    27   14   43 1
    28   15   16 2
    29   16   56 1
    30   17   18 2
    31   17   19 1
    32   19   20 1
    33   19   44 1
    34   19   45 1
    35   20   21 1
    36   21   22 2
    37   21   23 1
    38   23   28 ar
    39   23   24 ar
    40   24   25 ar
    41   24   46 1
    42   25   26 ar
    43   25   47 1
    44   26   27 ar
    45   26   29 1
    46   27   28 ar
    47   27   48 1
    48   28   49 1
    49   29   33 am
    50   29   30 1
    51   30   31 1
    52   30   50 1
    53   30   51 1
    54   31   32 1
    55   31   52 1
    56   31   53 1
    57   32   33 1
    58   32   54 1
    59   32   55 1
    60   33   34 2
@<TRIPOS>MOLECULE
ZINC11969217
   59    62     0     0     0
SMALL
USER_CHARGES
2-[(2R)-2-(2-methoxyphenyl)-3,5-dihydro-2H-1,4-benzoxazepin-4-yl]-N-methyl-N-[(1S)-1-thiazol-2-ylethyl]acetamide
@<TRIPOS>ATOM
      1 C1          0.1357    6.1062   -7.1516 C.3       1 <0>        -0.1617
      2 C2          0.8257    7.0663   -6.1805 C.3       1 <0>         0.2331
      3 H1          1.6620    6.5584   -5.7002 H         1 <0>         0.1409
      4 C3          1.3343    8.2664   -6.9370 C.2       1 <0>         0.0542
      5 N1          2.5663    8.5636   -7.2803 N.2       1 <0>        -0.4868
      6 C4          2.8470    9.6634   -7.9475 C.2       1 <0>         0.0252
      7 C5          1.8269   10.4955   -8.2784 C.2       1 <0>        -0.1932
      8 S1          0.4403    9.6069   -7.5847 S.3       1 <0>         0.0486
      9 N2         -0.1320    7.5016   -5.1610 N.am      1 <0>        -0.5877
     10 C6         -1.3501    8.2130   -5.5564 C.3       1 <0>         0.0443
     11 C7          0.1075    7.2477   -3.8592 C.2       1 <0>         0.5112
     12 O1          1.1160    6.6587   -3.5319 O.2       1 <0>        -0.5128
     13 C8         -0.8776    7.6955   -2.8104 C.3       1 <0>        -0.0277
     14 C9          0.8387    8.0247   -1.1367 C.3       1 <0>         0.0517
     15 C10         0.9059    8.1831    0.3699 C.ar      1 <0>        -0.1898
     16 C11         0.8030    9.4351    0.9405 C.ar      1 <0>        -0.0712
     17 C12         0.9158    9.5735    2.3129 C.ar      1 <0>        -0.1182
     18 C13         1.1307    8.4619    3.1069 C.ar      1 <0>        -0.0699
     19 C14         1.2233    7.2068    2.5360 C.ar      1 <0>        -0.1196
     20 C15         1.1007    7.0669    1.1607 C.ar      1 <0>         0.1130
     21 O2          1.1675    5.8332    0.5896 O.3       1 <0>        -0.3051
     22 C16        -0.0591    5.3507    0.0275 C.3       1 <0>         0.1459
     23 H2         -0.8938    5.6981    0.6363 H         1 <0>         0.0950
     24 C17        -0.2339    5.8530   -1.3894 C.3       1 <0>        -0.0433
     25 C18        -0.0430    3.8438    0.0213 C.ar      1 <0>        -0.1442
     26 C19         1.1605    3.1652    0.0071 C.ar      1 <0>        -0.0444
     27 C20         1.1758    1.7829    0.0004 C.ar      1 <0>        -0.1521
     28 C21        -0.0126    1.0758    0.0080 C.ar      1 <0>        -0.0570
     29 C22        -1.2183    1.7495    0.0173 C.ar      1 <0>        -0.2047
     30 C23        -1.2364    3.1369    0.0293 C.ar      1 <0>         0.1423
     31 O3         -2.4214    3.8020    0.0428 O.3       1 <0>        -0.3273
     32 C24        -3.6103    3.0092    0.0505 C.3       1 <0>         0.0239
     33 H3          0.8483    5.7823   -7.9102 H         1 <0>         0.0877
     34 H4         -0.2322    5.2382   -6.6045 H         1 <0>         0.0800
     35 H5         -0.7006    6.6141   -7.6320 H         1 <0>         0.0699
     36 H6          3.8643    9.8980   -8.2243 H         1 <0>         0.1770
     37 H7          1.8471   11.4322   -8.8156 H         1 <0>         0.2035
     38 H8         -1.1560    9.2855   -5.5710 H         1 <0>         0.0795
     39 H9         -1.6557    7.8856   -6.5501 H         1 <0>         0.0968
     40 H10        -2.1449    7.9973   -4.8424 H         1 <0>         0.0864
     41 H11        -1.8443    7.2274   -2.9965 H         1 <0>         0.1617
     42 H12        -0.9848    8.7794   -2.8519 H         1 <0>         0.1617
     43 H13         0.8288    9.0077   -1.6074 H         1 <0>         0.1320
     44 H14         1.7053    7.4620   -1.4840 H         1 <0>         0.1550
     45 H15         0.6352   10.3025    0.3194 H         1 <0>         0.1385
     46 H16         0.8363   10.5514    2.7644 H         1 <0>         0.1407
     47 H17         1.2269    8.5750    4.1766 H         1 <0>         0.1425
     48 H18         1.3899    6.3391    3.1571 H         1 <0>         0.1441
     49 H19         0.6380    5.5590   -1.9737 H         1 <0>         0.1657
     50 H20        -1.1153    5.3788   -1.8211 H         1 <0>         0.1350
     51 H21         2.0899    3.7152    0.0008 H         1 <0>         0.1404
     52 H22         2.1176    1.2543   -0.0111 H         1 <0>         0.1341
     53 H23         0.0021   -0.0041    0.0020 H         1 <0>         0.1344
     54 H24        -2.1462    1.1969    0.0187 H         1 <0>         0.1370
     55 H25        -3.6357    2.3837   -0.8418 H         1 <0>         0.0617
     56 H26        -3.6195    2.3766    0.9381 H         1 <0>         0.0632
     57 H27        -4.4827    3.6627    0.0611 H         1 <0>         0.1058
     58 N3         -0.4226    7.3178   -1.4626 N.4       1 <0>        -0.3784
     59 H28        -1.1397    7.5925   -0.7809 H         1 <0>         0.4319
@<TRIPOS>BOND
     1    1    2 1
     2    1   33 1
     3    1   34 1
     4    1   35 1
     5    2    3 1
     6    2    4 1
     7    2    9 1
     8    4    8 1
     9    4    5 2
    10    5    6 1
    11    6    7 2
    12    6   36 1
    13    7    8 1
    14    7   37 1
    15    9   10 1
    16    9   11 am
    17   10   38 1
    18   10   39 1
    19   10   40 1
    20   11   12 2
    21   11   13 1
    22   13   41 1
    23   13   42 1
    24   13   58 1
    25   14   15 1
    26   14   43 1
    27   14   44 1
    28   14   58 1
    29   15   20 ar
    30   15   16 ar
    31   16   17 ar
    32   16   45 1
    33   17   18 ar
    34   17   46 1
    35   18   19 ar
    36   18   47 1
    37   19   20 ar
    38   19   48 1
    39   20   21 1
    40   21   22 1
    41   22   23 1
    42   22   24 1
    43   22   25 1
    44   24   49 1
    45   24   50 1
    46   24   58 1
    47   25   30 ar
    48   25   26 ar
    49   26   27 ar
    50   26   51 1
    51   27   28 ar
    52   27   52 1
    53   28   29 ar
    54   28   53 1
    55   29   30 ar
    56   29   54 1
    57   30   31 1
    58   31   32 1
    59   32   55 1
    60   32   56 1
    61   32   57 1
    62   58   59 1
@<TRIPOS>MOLECULE
ZINC14749936
   64    68     0     0     0
SMALL
USER_CHARGES
4-(2-methoxyethyl)-2-(1-naphthylmethyl)-8-[(3S)-tetrahydrothiophen-3-yl]-2,4,8-triazaspiro[4.5]decane-1,3-dione
@<TRIPOS>ATOM
      1 C1          1.4651    2.1440    5.3890 C.3       1 <0>         0.0303
      2 O1          0.9317    1.7894    4.1116 O.3       1 <0>        -0.4024
      3 C2         -0.4768    1.5485    4.1164 C.3       1 <0>         0.0265
      4 C3         -0.9358    1.1790    2.7044 C.3       1 <0>         0.1384
      5 N1         -0.3069   -0.0810    2.3005 N.am      1 <0>        -0.6189
      6 C4         -0.4866   -1.2902    2.8660 C.2       1 <0>         0.7043
      7 O2         -1.2188   -1.4904    3.8152 O.2       1 <0>        -0.5079
      8 N2          0.2323   -2.2466    2.2655 N.am      1 <0>        -0.5692
      9 C5          0.9581   -1.7532    1.2406 C.2       1 <0>         0.5339
     10 O3          1.7042   -2.3659    0.5074 O.2       1 <0>        -0.4386
     11 C6          0.6439   -0.2759    1.1992 C.3       1 <0>         0.1134
     12 C7          0.0030    0.0965   -0.1340 C.3       1 <0>        -0.1414
     13 C8         -0.2785    1.6017   -0.1580 C.3       1 <0>        -0.0207
     14 C9          1.5647    2.0361    1.3565 C.3       1 <0>        -0.0234
     15 C10         1.9081    0.5456    1.4314 C.3       1 <0>        -0.1319
     16 C11         0.7717    3.7826   -0.1206 C.3       1 <0>         0.0341
     17 H1          0.0885    4.1273    0.6556 H         1 <0>         0.1512
     18 C12         2.1083    4.4860    0.0616 C.3       1 <0>        -0.1579
     19 C13         2.5513    5.3150   -1.1647 C.3       1 <0>        -0.0748
     20 S1          0.9339    5.6078   -2.0048 S.3       1 <0>        -0.2223
     21 C14         0.1155    4.0331   -1.4968 C.3       1 <0>        -0.1086
     22 C15         0.2311   -3.6544    2.6708 C.3       1 <0>         0.1611
     23 C16        -0.9232   -4.3656    2.0129 C.ar      1 <0>        -0.0937
     24 C17        -1.7016   -3.7134    1.1064 C.ar      1 <0>        -0.1045
     25 C18        -2.7702   -4.3558    0.4844 C.ar      1 <0>        -0.1187
     26 C19        -3.0728   -5.6513    0.7724 C.ar      1 <0>        -0.0929
     27 C20        -2.2951   -6.3556    1.7069 C.ar      1 <0>        -0.0480
     28 C21        -1.2052   -5.7035    2.3362 C.ar      1 <0>        -0.0378
     29 C22        -0.4272   -6.4084    3.2707 C.ar      1 <0>        -0.1173
     30 C23        -0.7293   -7.7039    3.5577 C.ar      1 <0>        -0.1023
     31 C24        -1.8014   -8.3450    2.9392 C.ar      1 <0>        -0.1117
     32 C25        -2.5766   -7.6943    2.0295 C.ar      1 <0>        -0.1015
     33 H2          2.5388    2.3103    5.3010 H         1 <0>         0.0915
     34 H3          0.9840    3.0556    5.7433 H         1 <0>         0.0493
     35 H4          1.2794    1.3364    6.0971 H         1 <0>         0.0494
     36 H5         -0.9981    2.4478    4.4443 H         1 <0>         0.0767
     37 H6         -0.7028    0.7285    4.7981 H         1 <0>         0.0786
     38 H7         -0.6468    1.9682    2.0103 H         1 <0>         0.0913
     39 H8         -2.0197    1.0641    2.6931 H         1 <0>         0.1100
     40 H9         -0.9323   -0.4504   -0.2534 H         1 <0>         0.1251
     41 H10         0.6812   -0.1597   -0.9479 H         1 <0>         0.1184
     42 H11        -0.7084    1.8757   -1.1214 H         1 <0>         0.1446
     43 H12        -0.9800    1.8529    0.6376 H         1 <0>         0.1432
     44 H13         0.8500    2.2842    2.1412 H         1 <0>         0.1590
     45 H14         2.4717    2.6253    1.4917 H         1 <0>         0.1418
     46 H15         2.3160    0.3153    2.4156 H         1 <0>         0.1295
     47 H16         2.6452    0.3032    0.6658 H         1 <0>         0.1107
     48 H17         2.0373    5.1500    0.9232 H         1 <0>         0.1185
     49 H18         2.8717    3.7350    0.2648 H         1 <0>         0.0985
     50 H19         3.0090    6.2553   -0.8574 H         1 <0>         0.1292
     51 H20         3.2257    4.7427   -1.8016 H         1 <0>         0.1058
     52 H21         0.3478    3.2281   -2.1940 H         1 <0>         0.1124
     53 H22        -0.9620    4.1654   -1.3988 H         1 <0>         0.1387
     54 H23         1.1674   -4.1214    2.3650 H         1 <0>         0.1162
     55 H24         0.1289   -3.7206    3.7540 H         1 <0>         0.1142
     56 H25        -1.4854   -2.6836    0.8630 H         1 <0>         0.1024
     57 H26        -3.3698   -3.8165   -0.2340 H         1 <0>         0.1239
     58 H27        -3.9065   -6.1352    0.2854 H         1 <0>         0.1320
     59 H28         0.4066   -5.9247    3.7579 H         1 <0>         0.1263
     60 H29        -0.1296   -8.2434    4.2759 H         1 <0>         0.1281
     61 H30        -2.0198   -9.3736    3.1853 H         1 <0>         0.1286
     62 H31        -3.4037   -8.2040    1.5577 H         1 <0>         0.1317
     63 N3          0.9959    2.3295    0.0232 N.4       1 <0>        -0.3992
     64 H32         1.6601    2.0218   -0.6969 H         1 <0>         0.4267
@<TRIPOS>BOND
     1    1    2 1
     2    1   33 1
     3    1   34 1
     4    1   35 1
     5    2    3 1
     6    3    4 1
     7    3   36 1
     8    3   37 1
     9    4    5 1
    10    4   38 1
    11    4   39 1
    12    5   11 1
    13    5    6 am
    14    6    7 2
    15    6    8 am
    16    8    9 am
    17    8   22 1
    18    9   10 2
    19    9   11 1
    20   11   15 1
    21   11   12 1
    22   12   13 1
    23   12   40 1
    24   12   41 1
    25   13   42 1
    26   13   43 1
    27   13   63 1
    28   14   15 1
    29   14   44 1
    30   14   45 1
    31   14   63 1
    32   15   46 1
    33   15   47 1
    34   16   17 1
    35   16   21 1
    36   16   18 1
    37   16   63 1
    38   18   19 1
    39   18   48 1
    40   18   49 1
    41   19   20 1
    42   19   50 1
    43   19   51 1
    44   20   21 1
    45   21   52 1
    46   21   53 1
    47   22   23 1
    48   22   54 1
    49   22   55 1
    50   23   28 ar
    51   23   24 ar
    52   24   25 ar
    53   24   56 1
    54   25   26 ar
    55   25   57 1
    56   26   27 ar
    57   26   58 1
    58   27   32 ar
    59   27   28 ar
    60   28   29 ar
    61   29   30 ar
    62   29   59 1
    63   30   31 ar
    64   30   60 1
    65   31   32 ar
    66   31   61 1
    67   32   62 1
    68   63   64 1
@<TRIPOS>MOLECULE
ZINC38994272
   55    58     0     0     0
SMALL
USER_CHARGES

@<TRIPOS>ATOM
      1 C1          0.3396    1.7434   -0.8135 C.3       1 <0>        -0.1303
      2 C2          0.2508    0.2445   -0.6847 C.ar      1 <0>        -0.0223
      3 C3          0.2182   -0.5459   -1.8183 C.ar      1 <0>        -0.1523
      4 C4          0.1369   -1.9208   -1.7001 C.ar      1 <0>        -0.0373
      5 C5          0.0885   -2.5052   -0.4483 C.ar      1 <0>        -0.6597
      6 C6          0.1220   -1.7149    0.6853 C.ar      1 <0>         0.0114
      7 C7          0.2077   -0.3402    0.5672 C.ar      1 <0>        -0.1308
      8 S1         -0.0164   -4.2577   -0.2977 S.o2      1 <0>         2.6832
      9 O1         -0.5876   -4.5223    0.9762 O.2       1 <0>        -0.9359
     10 O2         -0.5933   -4.7353   -1.5053 O.2       1 <0>        -0.9489
     11 N1          1.5336   -4.8388   -0.2513 N.pl3     1 <0>        -0.9860
     12 C8          2.1808   -5.0971    1.0373 C.3       1 <0>         0.1724
     13 C9          2.0085   -6.5487    1.4039 C.ar      1 <0>        -0.1801
     14 C10         0.9051   -6.9621    2.1350 C.ar      1 <0>        -0.0554
     15 C11         0.7881   -8.3071    2.4494 C.ar      1 <0>        -0.1681
     16 C12         1.7682   -9.1854    2.0266 C.ar      1 <0>         0.1118
     17 N2          2.8044   -8.7566    1.3331 N.ar      1 <0>        -0.4849
     18 C13         2.9452   -7.4855    1.0107 C.ar      1 <0>         0.1105
     19 C14         2.2576   -5.0945   -1.4990 C.3       1 <0>         0.1309
     20 C15         3.5250   -4.2383   -1.5378 C.3       1 <0>        -0.1634
     21 H1          4.1273   -4.4988   -0.6675 H         1 <0>         0.1834
     22 C16         4.3084   -4.6229   -2.7777 C.2       1 <0>         0.1452
     23 C17         4.5821   -3.6342   -3.6756 C.ar      1 <0>        -0.1824
     24 C18         5.3334   -3.9181   -4.8989 C.ar      1 <0>         0.0159
     25 C19         5.5832   -2.9018   -5.7645 C.ar      1 <0>        -0.1634
     26 C20         5.1398   -1.6040   -5.5087 C.ar      1 <0>         0.0879
     27 C21         4.4386   -1.2757   -4.3923 C.ar      1 <0>        -0.1906
     28 C22         4.1258   -2.2549   -3.4316 C.ar      1 <0>         0.3560
     29 N3          3.4365   -1.9215   -2.3406 N.am      1 <0>        -0.5926
     30 C23         3.1112   -2.7905   -1.3992 C.2       1 <0>         0.4955
     31 O3          2.4803   -2.4264   -0.4249 O.2       1 <0>        -0.3992
     32 C24         3.9920    0.1481   -4.1816 C.3       1 <0>        -0.1304
     33 H2          1.3868    2.0447   -0.8373 H         1 <0>         0.0787
     34 H3         -0.1502    2.0585   -1.7349 H         1 <0>         0.0753
     35 H4         -0.1538    2.2112    0.0385 H         1 <0>         0.0780
     36 H5          0.2560   -0.0893   -2.7963 H         1 <0>         0.1293
     37 H6          0.1107   -2.5383   -2.5858 H         1 <0>         0.1282
     38 H7          0.0839   -2.1715    1.6633 H         1 <0>         0.1394
     39 H8          0.2376    0.2771    1.4529 H         1 <0>         0.1346
     40 H9          3.2431   -4.8647    0.9634 H         1 <0>         0.0918
     41 H10         1.7245   -4.4720    1.8048 H         1 <0>         0.1070
     42 H11         0.1549   -6.2529    2.4523 H         1 <0>         0.1510
     43 H12        -0.0579   -8.6643    3.0178 H         1 <0>         0.1421
     44 H13         1.6845  -10.2348    2.2674 H         1 <0>         0.1613
     45 H14         3.8049   -7.1724    0.4369 H         1 <0>         0.1487
     46 H15         2.5296   -6.1487   -1.5517 H         1 <0>         0.1206
     47 H16         1.6214   -4.8405   -2.3469 H         1 <0>         0.1107
     48 H17         4.6365   -5.6385   -2.9426 H         1 <0>         0.2050
     49 H18         5.6833   -4.9179   -5.1094 H         1 <0>         0.1764
     50 H19         6.1370   -3.1025   -6.6697 H         1 <0>         0.1660
     51 H20         5.3633   -0.8290   -6.2270 H         1 <0>         0.1661
     52 H21         3.0053    0.2885   -4.6232 H         1 <0>         0.0938
     53 H22         3.9454    0.3600   -3.1134 H         1 <0>         0.0698
     54 H23         4.7020    0.8256   -4.6558 H         1 <0>         0.1003
     55 H24         3.1613   -0.9977   -2.2321 H         1 <0>         0.4355
@<TRIPOS>BOND
     1    1    2 1
     2    1   33 1
     3    1   34 1
     4    1   35 1
     5    2    7 ar
     6    2    3 ar
     7    3    4 ar
     8    3   36 1
     9    4    5 ar
    10    4   37 1
    11    5    6 ar
    12    5    8 1
    13    6    7 ar
    14    6   38 1
    15    7   39 1
    16    8    9 2
    17    8   10 2
    18    8   11 1
    19   11   12 1
    20   11   19 1
    21   12   13 1
    22   12   40 1
    23   12   41 1
    24   13   18 ar
    25   13   14 ar
    26   14   15 ar
    27   14   42 1
    28   15   16 ar
    29   15   43 1
    30   16   17 ar
    31   16   44 1
    32   17   18 ar
    33   18   45 1
    34   19   20 1
    35   19   46 1
    36   19   47 1
    37   20   21 1
    38   20   30 1
    39   20   22 1
    40   22   23 2
    41   22   48 1
    42   23   28 ar
    43   23   24 ar
    44   24   25 ar
    45   24   49 1
    46   25   26 ar
    47   25   50 1
    48   26   27 ar
    49   26   51 1
    50   27   28 ar
    51   27   32 1
    52   28   29 2
    53   29   30 am
    54   29   55 1
    55   30   31 2
    56   32   52 1
    57   32   53 1
    58   32   54 1
@<TRIPOS>MOLECULE
ZINC45809465
   57    59     0     0     0
SMALL
USER_CHARGES

@<TRIPOS>ATOM
      1 C1         -0.0187    1.5258    0.0104 C.3       1 <0>        -0.1782
      2 C2          0.0021   -0.0041    0.0020 C.3       1 <0>         0.0845
      3 N1          0.6878   -0.4765   -1.2033 N.pl3     1 <0>        -0.4773
      4 C3          0.1036   -0.7448   -2.4250 C.ar      1 <0>         0.1160
      5 C4         -1.1948   -0.6763   -2.9118 C.ar      1 <0>        -0.1280
      6 C5         -1.4527   -1.0243   -4.2205 C.ar      1 <0>         0.0048
      7 C6         -0.4240   -1.4424   -5.0528 C.ar      1 <0>        -0.6781
      8 C7          0.8595   -1.5165   -4.5911 C.ar      1 <0>         0.0650
      9 C8          1.1448   -1.1678   -3.2683 C.ar      1 <0>         0.0171
     10 N2          2.2862   -1.1365   -2.5335 N.2       1 <0>        -0.4282
     11 C9          2.0192   -0.7266   -1.3279 C.2       1 <0>         0.2007
     12 C10         3.0360   -0.5570   -0.2286 C.3       1 <0>         0.0812
     13 N3          3.1572   -1.8126    0.5243 N.4       1 <0>        -0.3867
     14 C11         1.8890   -2.0976    1.2086 C.3       1 <0>        -0.0661
     15 C12         4.2320   -1.6860    1.5177 C.3       1 <0>         0.0822
     16 H1          3.9984   -0.8720    2.2039 H         1 <0>         0.1526
     17 C13         4.3582   -2.9938    2.3018 C.3       1 <0>        -0.1802
     18 C14         5.5330   -1.3936    0.8157 C.ar      1 <0>        -0.1325
     19 C15         5.8346   -2.0313   -0.3734 C.ar      1 <0>        -0.0994
     20 C16         7.0272   -1.7648   -1.0191 C.ar      1 <0>        -0.1063
     21 C17         7.9209   -0.8583   -0.4756 C.ar      1 <0>         0.1007
     22 C18         7.6182   -0.2184    0.7166 C.ar      1 <0>         0.0848
     23 C19         6.4209   -0.4840    1.3583 C.ar      1 <0>        -0.0961
     24 F1          8.4892    0.6664    1.2492 F         1 <0>        -0.1115
     25 F2          9.0870   -0.5975   -1.1059 F         1 <0>        -0.1098
     26 S1         -0.7770   -1.8829   -6.7219 S.o2      1 <0>         2.6911
     27 O1          0.2602   -2.7603   -7.1386 O.2       1 <0>        -0.9445
     28 O2         -2.1488   -2.2512   -6.7633 O.2       1 <0>        -0.9429
     29 N4         -0.6285   -0.5081   -7.6330 N.pl3     1 <0>        -1.0018
     30 C20         0.6644   -0.1592   -8.2272 C.3       1 <0>         0.0891
     31 C21        -1.7899    0.3594   -7.8449 C.3       1 <0>         0.0811
     32 H2          1.0039    1.9031    0.0027 H         1 <0>         0.0644
     33 H3         -0.5459    1.8868   -0.8726 H         1 <0>         0.0731
     34 H4         -0.5289    1.8773    0.9072 H         1 <0>         0.0905
     35 H5          0.5293   -0.3651    0.8851 H         1 <0>         0.0945
     36 H6         -1.0205   -0.3814    0.0098 H         1 <0>         0.1093
     37 H7         -1.9992   -0.3522   -2.2680 H         1 <0>         0.1409
     38 H8         -2.4622   -0.9715   -4.6005 H         1 <0>         0.1568
     39 H9          1.6524   -1.8439   -5.2472 H         1 <0>         0.1554
     40 H10         4.0017   -0.2994   -0.6635 H         1 <0>         0.1653
     41 H11         2.7157    0.2398    0.4428 H         1 <0>         0.1512
     42 H12         1.6554   -1.2836    1.8948 H         1 <0>         0.1313
     43 H13         1.0915   -2.1915    0.4715 H         1 <0>         0.1213
     44 H14         1.9789   -3.0293    1.7672 H         1 <0>         0.1403
     45 H15         5.1557   -2.8999    3.0389 H         1 <0>         0.1136
     46 H16         3.4172   -3.2053    2.8095 H         1 <0>         0.0903
     47 H17         4.5918   -3.8078    1.6155 H         1 <0>         0.0867
     48 H18         5.1377   -2.7387   -0.7980 H         1 <0>         0.1387
     49 H19         7.2620   -2.2641   -1.9475 H         1 <0>         0.1624
     50 H20         6.1823    0.0166    2.2851 H         1 <0>         0.1592
     51 H21         0.7410   -0.6057   -9.2186 H         1 <0>         0.0677
     52 H22         0.7459    0.9246   -8.3095 H         1 <0>         0.0778
     53 H23         1.4684   -0.5371   -7.5955 H         1 <0>         0.0710
     54 H24        -2.6548   -0.0594   -7.3304 H         1 <0>         0.0871
     55 H25        -1.5781    1.3530   -7.4500 H         1 <0>         0.0645
     56 H26        -2.0009    0.4298   -8.9119 H         1 <0>         0.0736
     57 H27         3.3734   -2.5661   -0.1110 H         1 <0>         0.4294
@<TRIPOS>BOND
     1    1    2 1
     2    1   32 1
     3    1   33 1
     4    1   34 1
     5    2    3 1
     6    2   35 1
     7    2   36 1
     8    3   11 1
     9    3    4 1
    10    4    9 ar
    11    4    5 ar
    12    5    6 ar
    13    5   37 1
    14    6    7 ar
    15    6   38 1
    16    7    8 ar
    17    7   26 1
    18    8    9 ar
    19    8   39 1
    20    9   10 1
    21   10   11 2
    22   11   12 1
    23   12   13 1
    24   12   40 1
    25   12   41 1
    26   13   14 1
    27   13   15 1
    28   13   57 1
    29   14   42 1
    30   14   43 1
    31   14   44 1
    32   15   16 1
    33   15   17 1
    34   15   18 1
    35   17   45 1
    36   17   46 1
    37   17   47 1
    38   18   23 ar
    39   18   19 ar
    40   19   20 ar
    41   19   48 1
    42   20   21 ar
    43   20   49 1
    44   21   22 ar
    45   21   25 1
    46   22   23 ar
    47   22   24 1
    48   23   50 1
    49   26   27 2
    50   26   28 2
    51   26   29 1
    52   29   30 1
    53   29   31 1
    54   30   51 1
    55   30   52 1
    56   30   53 1
    57   31   54 1
    58   31   55 1
    59   31   56 1
@<TRIPOS>MOLECULE
ZINC63560910
   54    59     0     0     0
SMALL
USER_CHARGES

@<TRIPOS>ATOM
      1 C1         -0.0163    1.3482    0.0095 C.ar      1 <0>        -0.1537
      2 C2          1.1658    2.1014    0.0022 C.ar      1 <0>         0.0589
      3 C3          2.3912    1.5352   -0.0125 C.ar      1 <0>        -0.2132
      4 C4          2.5288    0.1198   -0.0218 C.ar      1 <0>         0.3287
      5 N1          3.5868   -0.6543   -0.0369 N.pl3     1 <0>        -0.5891
      6 C5          3.1432   -2.0528   -0.0408 C.3       1 <0>         0.0624
      7 C6          1.6315   -2.0084   -0.0255 C.2       1 <0>         0.0713
      8 C7          1.2951   -0.6984   -0.0144 C.ar      1 <0>        -0.1693
      9 C8          0.0021   -0.0041    0.0020 C.ar      1 <0>        -0.0068
     10 C9          0.6905   -3.1856   -0.0239 C.3       1 <0>        -0.1229
     11 C10         0.4565   -3.6534   -1.4617 C.3       1 <0>         0.1433
     12 N2         -0.4583   -4.7977   -1.4602 N.am      1 <0>        -0.6126
     13 C11        -0.0504   -6.2180   -1.3617 C.3       1 <0>         0.2758
     14 H1          0.1942   -6.6153   -2.3468 H         1 <0>         0.1323
     15 C12        -1.2697   -6.9034   -0.8026 C.2       1 <0>        -0.1591
     16 C13        -1.9956   -7.7417   -0.0851 C.2       1 <0>         0.1005
     17 N3         -3.2718   -7.2696    0.0353 N.2       1 <0>        -0.1313
     18 N4         -3.5362   -6.3420   -0.7451 N.2       1 <0>        -0.1072
     19 C14        -2.3567   -6.1214   -1.5728 C.3       1 <0>        -0.0971
     20 H2         -2.4958   -6.4990   -2.5858 H         1 <0>         0.1929
     21 C15        -1.8115   -4.7195   -1.5429 C.2       1 <0>         0.5648
     22 O1         -2.4653   -3.6990   -1.5876 O.2       1 <0>        -0.4727
     23 C16        -1.4981   -9.0095    0.5036 C.ar      1 <0>        -0.0557
     24 C17        -0.1701   -9.3910    0.3210 C.ar      1 <0>        -0.0609
     25 C18         0.2884  -10.5705    0.8705 C.ar      1 <0>        -0.1567
     26 C19        -0.5694  -11.3756    1.6027 C.ar      1 <0>         0.1231
     27 C20        -1.8904  -11.0004    1.7863 C.ar      1 <0>        -0.1529
     28 C21        -2.3558   -9.8194    1.2455 C.ar      1 <0>        -0.0485
     29 F1         -0.1163  -12.5300    2.1387 F         1 <0>        -0.1306
     30 C22         1.1212   -6.3687   -0.4259 C.ar      1 <0>         0.0973
     31 C23         2.3318   -6.8228   -0.9146 C.ar      1 <0>        -0.1521
     32 C24         3.4033   -6.9579   -0.0455 C.ar      1 <0>        -0.0688
     33 C25         3.2162   -6.6297    1.2888 C.ar      1 <0>        -0.1562
     34 C26         1.9768   -6.1821    1.7048 C.ar      1 <0>         0.0993
     35 N5          0.9811   -6.0608    0.8485 N.ar      1 <0>        -0.4575
     36 H3         -0.9665    1.8612    0.0259 H         1 <0>         0.1587
     37 H4          1.0933    3.1789    0.0083 H         1 <0>         0.1614
     38 H5          3.2717    2.1606   -0.0175 H         1 <0>         0.1605
     39 H6          3.4952   -2.5561   -0.9413 H         1 <0>         0.1700
     40 H7          3.5129   -2.5667    0.8465 H         1 <0>         0.1700
     41 H8         -0.9210   -0.5647    0.0081 H         1 <0>         0.1618
     42 H9          1.1268   -3.9987    0.5563 H         1 <0>         0.1232
     43 H10        -0.2596   -2.8905    0.4214 H         1 <0>         0.1140
     44 H11         0.0203   -2.8403   -2.0419 H         1 <0>         0.1008
     45 H12         1.4067   -3.9484   -1.9070 H         1 <0>         0.0932
     46 H13         0.4989   -8.7645   -0.2501 H         1 <0>         0.1266
     47 H14         1.3173  -10.8670    0.7296 H         1 <0>         0.1408
     48 H15        -2.5557  -11.6310    2.3574 H         1 <0>         0.1468
     49 H16        -3.3846   -9.5255    1.3930 H         1 <0>         0.1485
     50 H17         2.4415   -7.0696   -1.9603 H         1 <0>         0.1440
     51 H18         4.3609   -7.3107   -0.3990 H         1 <0>         0.1440
     52 H19         4.0288   -6.7230    1.9940 H         1 <0>         0.1425
     53 H20         1.8230   -5.9244    2.7422 H         1 <0>         0.1623
     54 H21         4.5087   -0.3528   -0.0446 H         1 <0>         0.4553
@<TRIPOS>BOND
     1    1    9 ar
     2    1    2 ar
     3    1   36 1
     4    2    3 ar
     5    2   37 1
     6    3    4 ar
     7    3   38 1
     8    4    8 ar
     9    4    5 2
    10    5    6 1
    11    5   54 1
    12    6    7 1
    13    6   39 1
    14    6   40 1
    15    7    8 2
    16    7   10 1
    17    8    9 ar
    18    9   41 1
    19   10   11 1
    20   10   42 1
    21   10   43 1
    22   11   12 1
    23   11   44 1
    24   11   45 1
    25   12   21 am
    26   12   13 1
    27   13   14 1
    28   13   15 1
    29   13   30 1
    30   15   19 1
    31   15   16 2
    32   16   17 1
    33   16   23 1
    34   17   18 2
    35   18   19 1
    36   19   20 1
    37   19   21 1
    38   21   22 2
    39   23   28 ar
    40   23   24 ar
    41   24   25 ar
    42   24   46 1
    43   25   26 ar
    44   25   47 1
    45   26   27 ar
    46   26   29 1
    47   27   28 ar
    48   27   48 1
    49   28   49 1
    50   30   35 ar
    51   30   31 ar
    52   31   32 ar
    53   31   50 1
    54   32   33 ar
    55   32   51 1
    56   33   34 ar
    57   33   52 1
    58   34   35 ar
    59   34   53 1
@<TRIPOS>MOLECULE
ZINC11874785
   57    60     0     0     0
SMALL
USER_CHARGES
N-[(1,3-dimethylpyrazol-4-yl)methyl]-1-[3-(2,5-dimethyl-3-thienyl)-1-(2-fluorophenyl)pyrazol-4-yl]-N-methyl-methanamine
@<TRIPOS>ATOM
      1 C1         -1.6312   -7.5537    0.9277 C.3       1 <0>        -0.0787
      2 C2         -1.3380   -6.2707    0.1935 C.2       1 <0>        -0.1269
      3 C3         -0.2226   -5.5071    0.2310 C.2       1 <0>        -0.1633
      4 C4         -0.1723   -4.3475   -0.5363 C.2       1 <0>        -0.0888
      5 C5         -1.2533   -4.0297   -1.3095 C.2       1 <0>        -0.1072
      6 S1         -2.3710   -5.3752   -0.9538 S.3       1 <0>         0.0853
      7 C6         -1.4507   -2.8492   -2.2253 C.3       1 <0>        -0.0840
      8 C7          1.0308   -3.4785   -0.5202 C.2       1 <0>         0.1629
      9 C8          2.3647   -3.9097   -0.6586 C.2       1 <0>        -0.2929
     10 C9          3.1617   -2.8206   -0.5958 C.2       1 <0>         0.1049
     11 N1          2.3679   -1.7334   -0.4141 N.pl3     1 <0>        -0.3004
     12 N2          1.0376   -2.1702   -0.3736 N.2       1 <0>        -0.2419
     13 C10         2.8033   -0.4064   -0.2942 C.ar      1 <0>         0.0979
     14 C11         4.1583   -0.1108   -0.3524 C.ar      1 <0>        -0.1061
     15 C12         4.5845    1.1977   -0.2335 C.ar      1 <0>        -0.1019
     16 C13         3.6635    2.2141   -0.0567 C.ar      1 <0>        -0.0806
     17 C14         2.3128    1.9250    0.0019 C.ar      1 <0>        -0.1317
     18 C15         1.8788    0.6169   -0.1164 C.ar      1 <0>         0.1139
     19 F1          0.5589    0.3341   -0.0596 F         1 <0>        -0.1127
     20 C16         2.8213   -5.3331   -0.8501 C.3       1 <0>         0.0883
     21 C17         3.5133   -4.9515   -3.1388 C.3       1 <0>        -0.0467
     22 C18         2.8396   -7.1668   -2.4311 C.3       1 <0>         0.0928
     23 C19         2.2809   -7.5948   -3.7637 C.2       1 <0>        -0.2929
     24 C20         1.5652   -6.8211   -4.6124 C.2       1 <0>         0.0555
     25 N3          1.2554   -7.5711   -5.6906 N.pl3     1 <0>        -0.3487
     26 N4          1.7909   -8.8506   -5.4941 N.2       1 <0>        -0.2689
     27 C21         2.4052   -8.8636   -4.3390 C.2       1 <0>         0.1062
     28 C22         3.1225  -10.0422   -3.7329 C.3       1 <0>        -0.0858
     29 C23         0.4893   -7.1274   -6.8579 C.3       1 <0>         0.0892
     30 H1         -2.6274   -7.9060    0.6601 H         1 <0>         0.0785
     31 H2         -0.8933   -8.3070    0.6518 H         1 <0>         0.0848
     32 H3         -1.5851   -7.3762    2.0021 H         1 <0>         0.0877
     33 H4          0.6154   -5.7911    0.8503 H         1 <0>         0.1367
     34 H5         -1.0989   -3.1024   -3.2254 H         1 <0>         0.0782
     35 H6         -2.5096   -2.5943   -2.2663 H         1 <0>         0.0842
     36 H7         -0.8862   -1.9972   -1.8465 H         1 <0>         0.0927
     37 H8          4.2389   -2.8155   -0.6740 H         1 <0>         0.1912
     38 H9          4.8789   -0.9034   -0.4901 H         1 <0>         0.1405
     39 H10         5.6388    1.4274   -0.2788 H         1 <0>         0.1473
     40 H11         4.0002    3.2361    0.0355 H         1 <0>         0.1475
     41 H12         1.5958    2.7214    0.1357 H         1 <0>         0.1520
     42 H13         3.8767   -5.4142   -0.5901 H         1 <0>         0.1403
     43 H14         2.2371   -5.9917   -0.2074 H         1 <0>         0.1361
     44 H15         4.5533   -5.1657   -2.8925 H         1 <0>         0.1280
     45 H16         3.3208   -5.2288   -4.1752 H         1 <0>         0.1183
     46 H17         3.3202   -3.8870   -3.0057 H         1 <0>         0.1166
     47 H18         3.9066   -7.3868   -2.3970 H         1 <0>         0.1375
     48 H19         2.3313   -7.7082   -1.6332 H         1 <0>         0.1331
     49 H20         1.2931   -5.7877   -4.4561 H         1 <0>         0.1679
     50 H21         2.4076  -10.6656   -3.1958 H         1 <0>         0.0876
     51 H22         3.5926  -10.6272   -4.5234 H         1 <0>         0.0848
     52 H23         3.8860   -9.6864   -3.0411 H         1 <0>         0.0800
     53 H24        -0.5715   -7.3108   -6.6873 H         1 <0>         0.0880
     54 H25         0.6529   -6.0614   -7.0160 H         1 <0>         0.0949
     55 H26         0.8165   -7.6798   -7.7387 H         1 <0>         0.1017
     56 N5          2.6042   -5.7176   -2.2607 N.4       1 <0>        -0.3970
     57 H27         1.6334   -5.5049   -2.5188 H         1 <0>         0.4247
@<TRIPOS>BOND
     1    1    2 1
     2    1   30 1
     3    1   31 1
     4    1   32 1
     5    2    6 1
     6    2    3 2
     7    3    4 1
     8    3   33 1
     9    4    5 2
    10    4    8 1
    11    5    6 1
    12    5    7 1
    13    7   34 1
    14    7   35 1
    15    7   36 1
    16    8   12 2
    17    8    9 1
    18    9   10 2
    19    9   20 1
    20   10   11 1
    21   10   37 1
    22   11   12 1
    23   11   13 1
    24   13   18 ar
    25   13   14 ar
    26   14   15 ar
    27   14   38 1
    28   15   16 ar
    29   15   39 1
    30   16   17 ar
    31   16   40 1
    32   17   18 ar
    33   17   41 1
    34   18   19 1
    35   20   42 1
    36   20   43 1
    37   20   56 1
    38   21   44 1
    39   21   45 1
    40   21   46 1
    41   21   56 1
    42   22   23 1
    43   22   47 1
    44   22   48 1
    45   22   56 1
    46   23   27 1
    47   23   24 2
    48   24   25 1
    49   24   49 1
    50   25   26 1
    51   25   29 1
    52   26   27 2
    53   27   28 1
    54   28   50 1
    55   28   51 1
    56   28   52 1
    57   29   53 1
    58   29   54 1
    59   29   55 1
    60   56   57 1
@<TRIPOS>MOLECULE
ZINC19607591
   62    65     0     0     0
SMALL
USER_CHARGES
3-[(3S)-1-(benzothiophen-2-ylmethyl)-3-piperidyl]-N-methyl-N-[2-(2-pyridyl)ethyl]propanamide
@<TRIPOS>ATOM
      1 C1         -0.0127    1.0858    0.0080 C.3       1 <0>         0.0676
      2 N1         -0.6984    1.5583    1.2133 N.am      1 <0>        -0.6163
      3 C2          0.0634    1.8061    2.4399 C.3       1 <0>         0.1206
      4 C3          0.5465    3.2577    2.4557 C.3       1 <0>        -0.0811
      5 C4          1.3302    3.5126    3.7175 C.ar      1 <0>         0.1262
      6 C5          2.6191    4.0047    3.6334 C.ar      1 <0>        -0.1693
      7 C6          3.3292    4.2414    4.8003 C.ar      1 <0>        -0.0715
      8 C7          2.7177    3.9621    6.0132 C.ar      1 <0>        -0.1741
      9 C8          1.4280    3.4659    6.0186 C.ar      1 <0>         0.1042
     10 N2          0.7803    3.2584    4.8886 N.ar      1 <0>        -0.4802
     11 C9         -2.0301    1.7650    1.1938 C.2       1 <0>         0.5087
     12 O1         -2.5978    2.1561    2.1916 O.2       1 <0>        -0.5307
     13 C10        -2.8137    1.5101   -0.0680 C.3       1 <0>        -0.1432
     14 C11        -4.2916    1.8201    0.1782 C.3       1 <0>        -0.1003
     15 C12        -5.0872    1.5614   -1.1028 C.3       1 <0>        -0.1071
     16 H1         -4.9050    0.5313   -1.4430 H         1 <0>         0.0966
     17 C13        -4.6440    2.5468   -2.1878 C.3       1 <0>        -0.1383
     18 C14        -5.4870    2.3214   -3.4460 C.3       1 <0>        -0.1426
     19 C15        -6.9680    2.4907   -3.1000 C.3       1 <0>        -0.0134
     20 N3         -7.3422    1.5250   -2.0589 N.4       1 <0>        -0.3973
     21 C16        -6.5799    1.7527   -0.8247 C.3       1 <0>        -0.0026
     22 C17        -8.7877    1.5640   -1.7997 C.3       1 <0>         0.0951
     23 C18        -9.5302    1.0879   -3.0216 C.2       1 <0>        -0.2384
     24 C19        -9.9009   -0.1625   -3.3327 C.2       1 <0>        -0.0551
     25 C20       -10.6182   -0.4049   -4.5757 C.ar      1 <0>        -0.1204
     26 C21       -11.0996   -1.6296   -5.0963 C.ar      1 <0>        -0.0590
     27 C22       -11.7563   -1.6687   -6.2860 C.ar      1 <0>        -0.1186
     28 C23       -11.9780   -0.5180   -7.0310 C.ar      1 <0>        -0.0657
     29 C24       -11.5237    0.6967   -6.5576 C.ar      1 <0>        -0.0853
     30 C25       -10.8566    0.7495   -5.3524 C.ar      1 <0>        -0.0933
     31 S1        -10.1315    2.0543   -4.3936 S.3       1 <0>         0.0624
     32 H2         -0.7441    0.9581   -0.8037 H         1 <0>         0.0789
     33 H3          0.4747    0.1221    0.2174 H         1 <0>         0.0678
     34 H4          0.7461    1.8224   -0.2947 H         1 <0>         0.0672
     35 H5         -0.5794    1.6240    3.3138 H         1 <0>         0.0997
     36 H6          0.9308    1.1306    2.4756 H         1 <0>         0.0782
     37 H7          1.1892    3.4397    1.5818 H         1 <0>         0.0795
     38 H8         -0.3209    3.9332    2.4200 H         1 <0>         0.0857
     39 H9          3.0658    4.2065    2.6710 H         1 <0>         0.1339
     40 H10         4.3361    4.6303    4.7655 H         1 <0>         0.1368
     41 H11         3.2429    4.1299    6.9418 H         1 <0>         0.1375
     42 H12         0.9448    3.2458    6.9590 H         1 <0>         0.1582
     43 H13        -2.4327    2.1558   -0.8729 H         1 <0>         0.0987
     44 H14        -2.7041    0.4555   -0.3610 H         1 <0>         0.0978
     45 H15        -4.6725    1.1744    0.9831 H         1 <0>         0.0844
     46 H16        -4.4012    2.8747    0.4713 H         1 <0>         0.0839
     47 H17        -4.7855    3.5766   -1.8278 H         1 <0>         0.0842
     48 H18        -3.5815    2.3825   -2.4205 H         1 <0>         0.0953
     49 H19        -5.2023    3.0552   -4.2144 H         1 <0>         0.1127
     50 H20        -5.3120    1.3046   -3.8273 H         1 <0>         0.0877
     51 H21        -7.1441    3.5123   -2.7322 H         1 <0>         0.1273
     52 H22        -7.5770    2.3145   -3.9989 H         1 <0>         0.1308
     53 H23        -6.9045    1.0357   -0.0562 H         1 <0>         0.1341
     54 H24        -6.7580    2.7780   -0.4682 H         1 <0>         0.1303
     55 H25        -9.0253    0.9095   -0.9481 H         1 <0>         0.1501
     56 H26        -9.0905    2.5952   -1.5653 H         1 <0>         0.1409
     57 H27        -9.6692   -0.9815   -2.6679 H         1 <0>         0.1454
     58 H28       -10.9440   -2.5434   -4.5421 H         1 <0>         0.1327
     59 H29       -12.1133   -2.6166   -6.6606 H         1 <0>         0.1380
     60 H30       -12.5016   -0.5729   -7.9739 H         1 <0>         0.1450
     61 H31       -11.6900    1.5991   -7.1273 H         1 <0>         0.1395
     62 H32        -7.0902    0.5198   -2.4278 H         1 <0>         0.4401
@<TRIPOS>BOND
     1    1    2 1
     2    1   32 1
     3    1   33 1
     4    1   34 1
     5    2    3 1
     6    2   11 am
     7    3    4 1
     8    3   35 1
     9    3   36 1
    10    4    5 1
    11    4   37 1
    12    4   38 1
    13    5   10 ar
    14    5    6 ar
    15    6    7 ar
    16    6   39 1
    17    7    8 ar
    18    7   40 1
    19    8    9 ar
    20    8   41 1
    21    9   10 ar
    22    9   42 1
    23   11   12 2
    24   11   13 1
    25   13   14 1
    26   13   43 1
    27   13   44 1
    28   14   15 1
    29   14   45 1
    30   14   46 1
    31   15   16 1
    32   15   21 1
    33   15   17 1
    34   17   18 1
    35   17   47 1
    36   17   48 1
    37   18   19 1
    38   18   49 1
    39   18   50 1
    40   19   20 1
    41   19   51 1
    42   19   52 1
    43   20   21 1
    44   20   22 1
    45   20   62 1
    46   21   53 1
    47   21   54 1
    48   22   23 1
    49   22   55 1
    50   22   56 1
    51   23   31 1
    52   23   24 2
    53   24   25 1
    54   24   57 1
    55   25   30 ar
    56   25   26 ar
    57   26   27 ar
    58   26   58 1
    59   27   28 ar
    60   27   59 1
    61   28   29 ar
    62   28   60 1
    63   29   30 ar
    64   29   61 1
    65   30   31 1
@<TRIPOS>MOLECULE
ZINC36642762
   57    59     0     0     0
SMALL
USER_CHARGES

@<TRIPOS>ATOM
      1 C1          0.1320    1.4848    0.3163 C.3       1 <0>        -0.1870
      2 C2         -0.0063   -0.0292    0.1446 C.3       1 <0>        -0.0239
      3 N1          0.6185   -0.4377   -1.1206 N.4       1 <0>        -0.3815
      4 C3          2.0661   -0.1977   -1.0516 C.3       1 <0>        -0.0154
      5 C4          2.6969   -0.4892   -2.4147 C.3       1 <0>        -0.1920
      6 C5          0.3695   -1.8670   -1.3506 C.3       1 <0>        -0.0489
      7 C6         -1.1301   -2.0984   -1.5466 C.3       1 <0>         0.0768
      8 N2         -1.3784   -3.5239   -1.7760 N.am      1 <0>        -0.5025
      9 C7         -1.6874   -4.3526   -0.7114 C.2       1 <0>         0.3385
     10 N3         -1.9343   -5.6420   -0.7163 N.2       1 <0>        -0.4730
     11 C8         -2.2248   -6.3297    0.4093 C.ar      1 <0>         0.0780
     12 C9         -2.5087   -7.7088    0.5412 C.ar      1 <0>        -0.0088
     13 C10        -2.7866   -8.2521    1.7681 C.ar      1 <0>        -0.1125
     14 C11        -2.7999   -7.4764    2.9184 C.ar      1 <0>        -0.0398
     15 C12        -2.5264   -6.1241    2.8265 C.ar      1 <0>        -0.0790
     16 C13        -2.2469   -5.5711    1.6018 C.ar      1 <0>        -0.1202
     17 S1         -1.8440   -3.9411    1.0208 S.3       1 <0>        -0.0103
     18 C14        -3.1099   -8.1013    4.2543 C.3       1 <0>        -0.1196
     19 C15        -2.5060   -8.5904   -0.6810 C.3       1 <0>        -0.1183
     20 C16        -1.3060   -4.0283   -3.0237 C.2       1 <0>         0.6092
     21 O1         -1.6052   -5.1898   -3.2287 O.2       1 <0>        -0.4228
     22 C17        -0.8668   -3.1775   -4.1340 C.2       1 <0>        -0.2978
     23 C18        -0.8168   -3.4487   -5.4939 C.2       1 <0>         0.2027
     24 N4         -0.3741   -2.4843   -6.2619 N.2       1 <0>        -0.5150
     25 C19         0.0009   -1.3264   -5.7688 C.2       1 <0>         0.1193
     26 S2         -0.2541   -1.5000   -4.1143 S.3       1 <0>         0.0489
     27 C20         0.5293   -0.1250   -6.5094 C.3       1 <0>        -0.0833
     28 C21        -1.2475   -4.7790   -6.0560 C.3       1 <0>        -0.1060
     29 H1          1.1856    1.7438    0.4216 H         1 <0>         0.0841
     30 H2         -0.2804    1.9888   -0.5578 H         1 <0>         0.0816
     31 H3         -0.4106    1.8006    1.2074 H         1 <0>         0.1104
     32 H4          0.4876   -0.5355    0.9739 H         1 <0>         0.1380
     33 H5         -1.0625   -0.2984    0.1318 H         1 <0>         0.1304
     34 H6          2.2496    0.8422   -0.7814 H         1 <0>         0.1406
     35 H7          2.5075   -0.8518   -0.2997 H         1 <0>         0.1350
     36 H8          3.7538   -0.2240   -2.3902 H         1 <0>         0.1123
     37 H9          2.5936   -1.5500   -2.6434 H         1 <0>         0.0796
     38 H10         2.1925    0.0986   -3.1817 H         1 <0>         0.0790
     39 H11         0.9066   -2.1905   -2.2422 H         1 <0>         0.1447
     40 H12         0.7160   -2.4393   -0.4900 H         1 <0>         0.1477
     41 H13        -1.6672   -1.7749   -0.6550 H         1 <0>         0.1229
     42 H14        -1.4767   -1.5261   -2.4071 H         1 <0>         0.1225
     43 H15        -3.0004   -9.3082    1.8413 H         1 <0>         0.1410
     44 H16        -2.5326   -5.5070    3.7128 H         1 <0>         0.1373
     45 H17        -2.1853   -8.4448    4.7181 H         1 <0>         0.0817
     46 H18        -3.5872   -7.3630    4.8987 H         1 <0>         0.0744
     47 H19        -3.7816   -8.9479    4.1123 H         1 <0>         0.0775
     48 H20        -1.5057   -8.9953   -0.8348 H         1 <0>         0.0777
     49 H21        -3.2116   -9.4091   -0.5399 H         1 <0>         0.0733
     50 H22        -2.7987   -8.0045   -1.5523 H         1 <0>         0.0799
     51 H23        -0.3015    0.5206   -6.7942 H         1 <0>         0.1064
     52 H24         1.2138    0.4268   -5.8652 H         1 <0>         0.0928
     53 H25         1.0576   -0.4534   -7.4044 H         1 <0>         0.1078
     54 H26        -2.3099   -4.7446   -6.2975 H         1 <0>         0.0948
     55 H27        -0.6763   -4.9939   -6.9591 H         1 <0>         0.0889
     56 H28        -1.0679   -5.5607   -5.3179 H         1 <0>         0.1022
     57 H29         0.2244    0.0987   -1.8789 H         1 <0>         0.4200
@<TRIPOS>BOND
     1    1    2 1
     2    1   29 1
     3    1   30 1
     4    1   31 1
     5    2    3 1
     6    2   32 1
     7    2   33 1
     8    3    4 1
     9    3    6 1
    10    3   57 1
    11    4    5 1
    12    4   34 1
    13    4   35 1
    14    5   36 1
    15    5   37 1
    16    5   38 1
    17    6    7 1
    18    6   39 1
    19    6   40 1
    20    7    8 1
    21    7   41 1
    22    7   42 1
    23    8    9 1
    24    8   20 am
    25    9   17 1
    26    9   10 2
    27   10   11 1
    28   11   16 ar
    29   11   12 ar
    30   12   13 ar
    31   12   19 1
    32   13   14 ar
    33   13   43 1
    34   14   15 ar
    35   14   18 1
    36   15   16 ar
    37   15   44 1
    38   16   17 1
    39   18   45 1
    40   18   46 1
    41   18   47 1
    42   19   48 1
    43   19   49 1
    44   19   50 1
    45   20   21 2
    46   20   22 1
    47   22   26 1
    48   22   23 2
    49   23   24 1
    50   23   28 1
    51   24   25 2
    52   25   26 1
    53   25   27 1
    54   27   51 1
    55   27   52 1
    56   27   53 1
    57   28   54 1
    58   28   55 1
    59   28   56 1
@<TRIPOS>MOLECULE
ZINC45767143
   55    58     0     0     0
SMALL
USER_CHARGES

@<TRIPOS>ATOM
      1 C1          0.4889    2.0642   -0.5408 C.3       1 <0>        -0.0969
      2 C2          0.1597    2.2562   -1.9988 C.2       1 <0>         0.1984
      3 C3         -0.0507    1.1786   -2.8498 C.2       1 <0>        -0.3301
      4 S1         -0.3869    2.0306   -4.3829 S.3       1 <0>         0.1260
      5 C4         -0.2328    3.6065   -3.8128 C.2       1 <0>         0.1576
      6 N1          0.0513    3.4458   -2.5296 N.2       1 <0>        -0.5251
      7 C5         -0.3844    4.8675   -4.5631 C.2       1 <0>        -0.0891
      8 C6         -0.2132    6.1478   -3.9226 C.2       1 <0>        -0.1109
      9 C7         -0.3787    7.2255   -4.7186 C.2       1 <0>        -0.1979
     10 S2         -0.7578    6.4978   -6.2982 S.3       1 <0>         0.2259
     11 C8         -0.6869    4.8709   -5.8938 C.2       1 <0>        -0.2222
     12 C9         -0.0079   -0.2573   -2.5682 C.2       1 <0>         0.6146
     13 O1          0.1131   -0.6495   -1.4221 O.2       1 <0>        -0.4925
     14 N2         -0.1024   -1.1452   -3.5778 N.am      1 <0>        -0.6232
     15 C10        -0.1965   -2.5832   -3.2547 C.3       1 <0>         0.1034
     16 C11        -1.2285   -3.2866   -4.1549 C.3       1 <0>        -0.1567
     17 C12        -2.4295   -2.3862   -4.3424 C.3       1 <0>        -0.0096
     18 N3         -2.2576   -1.6006   -5.5623 N.4       1 <0>        -0.3636
     19 C13        -1.5623   -0.3826   -5.3932 C.3       1 <0>        -0.0631
     20 C14        -0.1141   -0.6544   -4.9404 C.3       1 <0>         0.0849
     21 C15        -3.5865   -1.3030   -6.1131 C.3       1 <0>         0.0408
     22 C16        -3.4354   -0.5989   -7.4369 C.ar      1 <0>        -0.2075
     23 C17        -3.3571    0.7809   -7.4798 C.ar      1 <0>        -0.0582
     24 C18        -3.2191    1.4287   -8.6921 C.ar      1 <0>        -0.1495
     25 C19        -3.1586    0.6936   -9.8671 C.ar      1 <0>         0.1695
     26 C20        -3.2370   -0.6907   -9.8214 C.ar      1 <0>        -0.2073
     27 C21        -3.3698   -1.3341   -8.6061 C.ar      1 <0>        -0.0460
     28 O2         -3.0233    1.3286  -11.0610 O.3       1 <0>        -0.3062
     29 C22        -2.9680    0.5081  -12.2296 C.3       1 <0>         0.0205
     30 H1         -0.4338    2.0287    0.0384 H         1 <0>         0.0903
     31 H2          1.0352    1.1299   -0.4117 H         1 <0>         0.0955
     32 H3          1.1035    2.8952   -0.1946 H         1 <0>         0.0836
     33 H4          0.0310    6.2387   -2.8745 H         1 <0>         0.1549
     34 H5         -0.3006    8.2713   -4.4606 H         1 <0>         0.1977
     35 H6         -0.8461    4.0200   -6.5394 H         1 <0>         0.1881
     36 H7          0.7793   -3.0469   -3.3994 H         1 <0>         0.0902
     37 H8         -0.4945   -2.6970   -2.2125 H         1 <0>         0.1118
     38 H9         -0.7793   -3.4999   -5.1249 H         1 <0>         0.0904
     39 H10        -1.5431   -4.2194   -3.6870 H         1 <0>         0.1288
     40 H11        -3.3306   -2.9939   -4.4248 H         1 <0>         0.1403
     41 H12        -2.5188   -1.7159   -3.4874 H         1 <0>         0.1306
     42 H13        -1.5505    0.1606   -6.3381 H         1 <0>         0.1531
     43 H14        -2.0683    0.2203   -4.6392 H         1 <0>         0.1330
     44 H15         0.4584    0.2715   -4.9970 H         1 <0>         0.1234
     45 H16         0.3363   -1.3984   -5.5974 H         1 <0>         0.1140
     46 H17        -4.1368   -2.2329   -6.2568 H         1 <0>         0.1401
     47 H18        -4.1315   -0.6616   -5.4205 H         1 <0>         0.1352
     48 H19        -3.4042    1.3526   -6.5648 H         1 <0>         0.1370
     49 H20        -3.1586    2.5065   -8.7251 H         1 <0>         0.1444
     50 H21        -3.1902   -1.2652  -10.7347 H         1 <0>         0.1420
     51 H22        -3.4264   -2.4120   -8.5696 H         1 <0>         0.1351
     52 H23        -2.1157   -0.1677  -12.1591 H         1 <0>         0.0625
     53 H24        -3.8867   -0.0730  -12.3094 H         1 <0>         0.0634
     54 H25        -2.8594    1.1390  -13.1118 H         1 <0>         0.1120
     55 H26        -1.7570   -2.1622   -6.2347 H         1 <0>         0.4166
@<TRIPOS>BOND
     1    1    2 1
     2    1   30 1
     3    1   31 1
     4    1   32 1
     5    2    6 1
     6    2    3 2
     7    3    4 1
     8    3   12 1
     9    4    5 1
    10    5    6 2
    11    5    7 1
    12    7   11 2
    13    7    8 1
    14    8    9 2
    15    8   33 1
    16    9   10 1
    17    9   34 1
    18   10   11 1
    19   11   35 1
    20   12   13 2
    21   12   14 am
    22   14   20 1
    23   14   15 1
    24   15   16 1
    25   15   36 1
    26   15   37 1
    27   16   17 1
    28   16   38 1
    29   16   39 1
    30   17   18 1
    31   17   40 1
    32   17   41 1
    33   18   19 1
    34   18   21 1
    35   18   55 1
    36   19   20 1
    37   19   42 1
    38   19   43 1
    39   20   44 1
    40   20   45 1
    41   21   22 1
    42   21   46 1
    43   21   47 1
    44   22   27 ar
    45   22   23 ar
    46   23   24 ar
    47   23   48 1
    48   24   25 ar
    49   24   49 1
    50   25   26 ar
    51   25   28 1
    52   26   27 ar
    53   26   50 1
    54   27   51 1
    55   28   29 1
    56   29   52 1
    57   29   53 1
    58   29   54 1
@<TRIPOS>MOLECULE
ZINC63139943
   62    67     0     0     0
SMALL
USER_CHARGES

@<TRIPOS>ATOM
      1 C1         -0.0167    1.3781    0.0096 C.ar      1 <0>        -0.1174
      2 C2          1.1709    2.0855    0.0021 C.ar      1 <0>        -0.1149
      3 C3          2.3773    1.4107   -0.0130 C.ar      1 <0>        -0.1181
      4 C4          2.3960    0.0285   -0.0201 C.ar      1 <0>        -0.0930
      5 C5          1.2084   -0.6789   -0.0117 C.ar      1 <0>        -0.1162
      6 C6          0.0021   -0.0041    0.0020 C.ar      1 <0>        -0.1143
      7 C7          3.7112   -0.7071   -0.0376 C.3       1 <0>        -0.0706
      8 C8          4.1714   -0.9633    1.3989 C.3       1 <0>        -0.1401
      9 C9          5.5066   -1.7102    1.3812 C.3       1 <0>         0.1553
     10 H1          6.2218   -1.1432    0.7852 H         1 <0>         0.1298
     11 C10         6.0315   -1.8242    2.8120 C.3       1 <0>         0.0878
     12 H2          7.0923   -2.0741    2.8275 H         1 <0>         0.1824
     13 C11         5.1906   -2.9099    3.4796 C.2       1 <0>         0.0631
     14 C12         4.5650   -2.3367    4.4984 C.ar      1 <0>        -0.1504
     15 C13         3.6480   -2.8782    5.5148 C.ar      1 <0>         0.0053
     16 C14         3.1777   -1.9917    6.4315 C.ar      1 <0>        -0.1595
     17 C15         3.5241   -0.6370    6.4391 C.ar      1 <0>         0.0620
     18 C16         4.3605   -0.0540    5.5439 C.ar      1 <0>        -0.2087
     19 C17         4.9209   -0.8856    4.5307 C.ar      1 <0>         0.3410
     20 N1          5.7606   -0.5888    3.5592 N.pl3     1 <0>        -0.5825
     21 C18         5.1615   -4.3141    2.9414 C.3       1 <0>        -0.0806
     22 C19         5.1092   -4.2838    1.4359 C.3       1 <0>         0.1215
     23 H3          5.9461   -4.8993    1.1060 H         1 <0>         0.1113
     24 N2          5.3104   -3.0162    0.7694 N.am      1 <0>        -0.6105
     25 C20         5.2604   -3.0608   -0.6028 C.2       1 <0>         0.5128
     26 O1          5.4806   -2.0779   -1.2784 O.2       1 <0>        -0.4749
     27 C21         4.9181   -4.3947   -1.2321 C.3       1 <0>         0.0878
     28 N3          3.7959   -4.9903   -0.4835 N.am      1 <0>        -0.6052
     29 C22         3.8852   -4.9625    0.8744 C.2       1 <0>         0.5110
     30 O2          3.0350   -5.4538    1.5862 O.2       1 <0>        -0.4953
     31 C23         2.6431   -5.5817   -1.1673 C.3       1 <0>         0.1642
     32 C24         2.9046   -7.0442   -1.4195 C.ar      1 <0>        -0.1348
     33 C25         3.5191   -7.4439   -2.5916 C.ar      1 <0>        -0.0734
     34 C26         3.7599   -8.7848   -2.8239 C.ar      1 <0>        -0.1554
     35 C27         3.3853   -9.7281   -1.8821 C.ar      1 <0>         0.1128
     36 C28         2.7699   -9.3266   -0.7085 C.ar      1 <0>        -0.1558
     37 C29         2.5349   -7.9847   -0.4761 C.ar      1 <0>        -0.0648
     38 F1          3.6197  -11.0392   -2.1082 F         1 <0>        -0.1341
     39 H4         -0.9591    1.9053    0.0259 H         1 <0>         0.1254
     40 H5          1.1563    3.1654    0.0076 H         1 <0>         0.1248
     41 H6          3.3051    1.9634   -0.0196 H         1 <0>         0.1191
     42 H7          1.2231   -1.7588   -0.0176 H         1 <0>         0.1148
     43 H8         -0.9258   -0.5567    0.0082 H         1 <0>         0.1243
     44 H9          3.5884   -1.6586   -0.5549 H         1 <0>         0.0750
     45 H10         4.4573   -0.1052   -0.5563 H         1 <0>         0.0867
     46 H11         4.2941   -0.0118    1.9163 H         1 <0>         0.0764
     47 H12         3.4252   -1.5652    1.9176 H         1 <0>         0.0724
     48 H13         3.3648   -3.9202    5.5309 H         1 <0>         0.1725
     49 H14         2.5023   -2.3522    7.1933 H         1 <0>         0.1572
     50 H15         3.0966   -0.0124    7.2094 H         1 <0>         0.1595
     51 H16         4.5926    0.9994    5.5968 H         1 <0>         0.1701
     52 H17         6.0586   -4.8437    3.2621 H         1 <0>         0.1455
     53 H18         4.2811   -4.8305    3.3241 H         1 <0>         0.1418
     54 H19         4.6266   -4.2452   -2.2717 H         1 <0>         0.1345
     55 H20         5.7833   -5.0558   -1.1826 H         1 <0>         0.1146
     56 H21         1.7559   -5.4736   -0.5434 H         1 <0>         0.1010
     57 H22         2.4834   -5.0720   -2.1174 H         1 <0>         0.0991
     58 H23         3.8109   -6.7079   -3.3262 H         1 <0>         0.1332
     59 H24         4.2396   -9.0968   -3.7398 H         1 <0>         0.1397
     60 H25         2.4770  -10.0616    0.0266 H         1 <0>         0.1387
     61 H26         2.0589   -7.6710    0.4411 H         1 <0>         0.1370
     62 H27         6.1347    0.2843    3.3626 H         1 <0>         0.4588
@<TRIPOS>BOND
     1    1    6 ar
     2    1    2 ar
     3    1   39 1
     4    2    3 ar
     5    2   40 1
     6    3    4 ar
     7    3   41 1
     8    4    5 ar
     9    4    7 1
    10    5    6 ar
    11    5   42 1
    12    6   43 1
    13    7    8 1
    14    7   44 1
    15    7   45 1
    16    8    9 1
    17    8   46 1
    18    8   47 1
    19    9   10 1
    20    9   24 1
    21    9   11 1
    22   11   12 1
    23   11   20 1
    24   11   13 1
    25   13   14 2
    26   13   21 1
    27   14   19 ar
    28   14   15 ar
    29   15   16 ar
    30   15   48 1
    31   16   17 ar
    32   16   49 1
    33   17   18 ar
    34   17   50 1
    35   18   19 ar
    36   18   51 1
    37   19   20 2
    38   20   62 1
    39   21   22 1
    40   21   52 1
    41   21   53 1
    42   22   23 1
    43   22   29 1
    44   22   24 1
    45   24   25 am
    46   25   26 2
    47   25   27 1
    48   27   28 1
    49   27   54 1
    50   27   55 1
    51   28   29 am
    52   28   31 1
    53   29   30 2
    54   31   32 1
    55   31   56 1
    56   31   57 1
    57   32   37 ar
    58   32   33 ar
    59   33   34 ar
    60   33   58 1
    61   34   35 ar
    62   34   59 1
    63   35   36 ar
    64   35   38 1
    65   36   37 ar
    66   36   60 1
    67   37   61 1
@<TRIPOS>MOLECULE
ZINC12073115
   58    61     0     0     0
SMALL
USER_CHARGES
1-[[3-(4-fluorophenyl)-1-(p-tolyl)pyrazol-4-yl]methyl]-4-(methoxymethyl)piperidine
@<TRIPOS>ATOM
      1 C1         -6.4963    0.0398    0.0294 C.3       1 <0>        -0.1242
      2 C2         -5.0690    0.5234    0.0263 C.ar      1 <0>        -0.0701
      3 C3         -4.8000    1.8798    0.0322 C.ar      1 <0>        -0.0968
      4 C4         -3.4930    2.3261    0.0294 C.ar      1 <0>        -0.0994
      5 C5         -2.4485    1.4112    0.0202 C.ar      1 <0>         0.1196
      6 C6         -2.7219    0.0498    0.0084 C.ar      1 <0>        -0.1236
      7 C7         -4.0310   -0.3903    0.0171 C.ar      1 <0>        -0.0953
      8 N1         -1.1215    1.8607    0.0168 N.pl3     1 <0>        -0.2899
      9 C8         -0.0126    1.0758    0.0080 C.2       1 <0>         0.1053
     10 C9          1.0683    1.8859    0.0020 C.2       1 <0>        -0.2910
     11 C10         0.6109    3.2184    0.0127 C.2       1 <0>         0.1360
     12 N2         -0.7054    3.1983    0.0246 N.2       1 <0>        -0.2496
     13 C11         1.4638    4.4326    0.0103 C.ar      1 <0>        -0.0330
     14 C12         2.6775    4.4353    0.6951 C.ar      1 <0>        -0.0909
     15 C13         3.4700    5.5647    0.6858 C.ar      1 <0>        -0.1439
     16 C14         3.0555    6.6987    0.0062 C.ar      1 <0>         0.1256
     17 C15         1.8471    6.7022   -0.6715 C.ar      1 <0>        -0.1346
     18 C16         1.0508    5.5754   -0.6719 C.ar      1 <0>        -0.0485
     19 F1          3.8317    7.8045    0.0048 F         1 <0>        -0.1239
     20 C17         2.5086    1.4428   -0.0134 C.3       1 <0>         0.0837
     21 C18         2.1324    0.9420    2.3250 C.3       1 <0>        -0.0047
     22 C19         2.6710    1.1723    3.7389 C.3       1 <0>        -0.1393
     23 C20         4.0508    0.5210    3.8665 C.3       1 <0>        -0.0983
     24 C21         4.9841    1.1084    2.8043 C.3       1 <0>        -0.1440
     25 C22         4.3785    0.8800    1.4175 C.3       1 <0>        -0.0018
     26 C23         4.6210    0.7998    5.2587 C.3       1 <0>         0.0619
     27 O1          3.8124    0.1522    6.2430 O.3       1 <0>        -0.3914
     28 C24         4.2607    0.3503    7.5854 C.3       1 <0>         0.0299
     29 H1         -6.8445   -0.0715   -0.9975 H         1 <0>         0.0800
     30 H2         -6.5529   -0.9223    0.5385 H         1 <0>         0.0737
     31 H3         -7.1240    0.7635    0.5494 H         1 <0>         0.0741
     32 H4         -5.6129    2.5909    0.0394 H         1 <0>         0.1393
     33 H5         -3.2836    3.3856    0.0341 H         1 <0>         0.1405
     34 H6         -1.9116   -0.6642   -0.0029 H         1 <0>         0.1308
     35 H7         -4.2443   -1.4490    0.0124 H         1 <0>         0.1398
     36 H8          0.0021   -0.0041    0.0020 H         1 <0>         0.1916
     37 H9          2.9991    3.5534    1.2291 H         1 <0>         0.1025
     38 H10         4.4127    5.5664    1.2128 H         1 <0>         0.1491
     39 H11         1.5278    7.5883   -1.2000 H         1 <0>         0.1522
     40 H12         0.1087    5.5791   -1.1999 H         1 <0>         0.1467
     41 H13         2.5687    0.4146   -0.3700 H         1 <0>         0.1412
     42 H14         3.0813    2.0913   -0.6764 H         1 <0>         0.1358
     43 H15         1.1562    1.4168    2.2264 H         1 <0>         0.1255
     44 H16         2.0355   -0.1283    2.1432 H         1 <0>         0.1306
     45 H17         1.9900    0.7276    4.4646 H         1 <0>         0.1183
     46 H18         2.7551    2.2428    3.9264 H         1 <0>         0.0833
     47 H19         3.9609   -0.5551    3.7175 H         1 <0>         0.0994
     48 H20         5.9558    0.6180    2.8623 H         1 <0>         0.1168
     49 H21         5.1053    2.1778    2.9768 H         1 <0>         0.0884
     50 H22         4.2710   -0.1901    1.2399 H         1 <0>         0.1340
     51 H23         5.0336    1.3097    0.6598 H         1 <0>         0.1323
     52 H24         5.6402    0.4177    5.3171 H         1 <0>         0.0601
     53 H25         4.6247    1.8744    5.4412 H         1 <0>         0.0547
     54 H26         4.2570    1.4155    7.8162 H         1 <0>         0.0454
     55 H27         3.5947   -0.1726    8.2717 H         1 <0>         0.0930
     56 H28         5.2724   -0.0411    7.6920 H         1 <0>         0.0469
     57 N3          3.0631    1.5519    1.3518 N.4       1 <0>        -0.4071
     58 H29         3.1842    2.5447    1.5840 H         1 <0>         0.4135
@<TRIPOS>BOND
     1    1    2 1
     2    1   29 1
     3    1   30 1
     4    1   31 1
     5    2    7 ar
     6    2    3 ar
     7    3    4 ar
     8    3   32 1
     9    4    5 ar
    10    4   33 1
    11    5    6 ar
    12    5    8 1
    13    6    7 ar
    14    6   34 1
    15    7   35 1
    16    8   12 1
    17    8    9 1
    18    9   10 2
    19    9   36 1
    20   10   11 1
    21   10   20 1
    22   11   12 2
    23   11   13 1
    24   13   18 ar
    25   13   14 ar
    26   14   15 ar
    27   14   37 1
    28   15   16 ar
    29   15   38 1
    30   16   17 ar
    31   16   19 1
    32   17   18 ar
    33   17   39 1
    34   18   40 1
    35   20   41 1
    36   20   42 1
    37   20   57 1
    38   21   22 1
    39   21   43 1
    40   21   44 1
    41   21   57 1
    42   22   23 1
    43   22   45 1
    44   22   46 1
    45   23   24 1
    46   23   26 1
    47   23   47 1
    48   24   25 1
    49   24   48 1
    50   24   49 1
    51   25   50 1
    52   25   51 1
    53   25   57 1
    54   26   27 1
    55   26   52 1
    56   26   53 1
    57   27   28 1
    58   28   54 1
    59   28   55 1
    60   28   56 1
    61   57   58 1
@<TRIPOS>MOLECULE
ZINC19839410
   62    64     0     0     0
SMALL
USER_CHARGES
N,N-dimethyl-5-[[methyl-[[(3S)-1-[2-(o-tolyl)ethyl]-3-piperidyl]methyl]amino]methyl]thiazol-2-amine
@<TRIPOS>ATOM
      1 C1          4.5295    1.2947    4.6961 C.3       1 <0>        -0.1204
      2 C2          4.0368    0.0371    5.3645 C.ar      1 <0>        -0.0760
      3 C3          4.7187   -0.4820    6.4494 C.ar      1 <0>        -0.1148
      4 C4          4.2700   -1.6386    7.0587 C.ar      1 <0>        -0.1020
      5 C5          3.1362   -2.2735    6.5867 C.ar      1 <0>        -0.1196
      6 C6          2.4515   -1.7517    5.5055 C.ar      1 <0>        -0.1064
      7 C7          2.9003   -0.5948    4.8959 C.ar      1 <0>        -0.1065
      8 C8          2.1539   -0.0261    3.7167 C.3       1 <0>        -0.1008
      9 C9          2.7948   -0.5234    2.4194 C.3       1 <0>        -0.0034
     10 N1          2.0673    0.0310    1.2699 N.4       1 <0>        -0.3967
     11 C10         0.6987   -0.4979    1.2086 C.3       1 <0>        -0.0090
     12 C11         0.0210   -0.0150   -0.0758 C.3       1 <0>        -0.1432
     13 C12        -0.0023    1.5159   -0.0903 C.3       1 <0>        -0.1354
     14 C13         1.4313    2.0415    0.0234 C.3       1 <0>        -0.0982
     15 H1          2.0162    1.7108   -0.8476 H         1 <0>         0.0954
     16 C14         2.0682    1.4990    1.3048 C.3       1 <0>        -0.0009
     17 C15         1.4126    3.5706    0.0699 C.3       1 <0>         0.0536
     18 N2          2.7912    4.0778    0.0578 N.3       1 <0>        -0.5427
     19 C16         3.3752    3.9830   -1.2868 C.3       1 <0>         0.0131
     20 C17         2.8494    5.4567    0.5610 C.3       1 <0>         0.1550
     21 C18         4.2879    5.8564    0.7659 C.2       1 <0>        -0.2410
     22 C19         5.1532    6.4414   -0.0962 C.2       1 <0>         0.0960
     23 N3          6.3793    6.6978    0.3197 N.2       1 <0>        -0.5863
     24 C20         6.7617    6.3945    1.5455 C.2       1 <0>         0.3569
     25 S1          5.3199    5.6965    2.2158 S.3       1 <0>         0.0313
     26 N4          7.9957    6.5889    2.1461 N.pl3     1 <0>        -0.5691
     27 C21         9.0873    7.2107    1.3924 C.3       1 <0>         0.0971
     28 C22         8.2083    6.1726    3.5345 C.3       1 <0>         0.0861
     29 H2          5.4383    1.6485    5.2050 H         1 <0>         0.0737
     30 H3          3.7512    2.0699    4.7543 H         1 <0>         0.0730
     31 H4          4.7586    1.0836    3.6411 H         1 <0>         0.0640
     32 H5          5.6046    0.0138    6.8178 H         1 <0>         0.1278
     33 H6          4.8053   -2.0465    7.9034 H         1 <0>         0.1288
     34 H7          2.7858   -3.1774    7.0627 H         1 <0>         0.1280
     35 H8          1.5660   -2.2479    5.1365 H         1 <0>         0.1229
     36 H9          1.1040   -0.3521    3.7555 H         1 <0>         0.0911
     37 H10         2.1982    1.0725    3.7499 H         1 <0>         0.0957
     38 H11         3.8447   -0.1975    2.3807 H         1 <0>         0.1312
     39 H12         2.7505   -1.6220    2.3862 H         1 <0>         0.1313
     40 H13         0.7299   -1.5974    1.2152 H         1 <0>         0.1293
     41 H14         0.1287   -0.1421    2.0795 H         1 <0>         0.1256
     42 H15         0.5823   -0.3832   -0.9472 H         1 <0>         0.0878
     43 H16        -1.0089   -0.3995   -0.1139 H         1 <0>         0.1117
     44 H17        -0.4509    1.8669   -1.0313 H         1 <0>         0.0934
     45 H18        -0.5983    1.8816    0.7588 H         1 <0>         0.0821
     46 H19         1.4918    1.8454    2.1753 H         1 <0>         0.1239
     47 H20         3.1032    1.8633    1.3819 H         1 <0>         0.1412
     48 H21         0.8719    3.9575   -0.8064 H         1 <0>         0.0606
     49 H22         0.9075    3.9034    0.9887 H         1 <0>         0.0851
     50 H23         4.4052    4.3686   -1.2672 H         1 <0>         0.0785
     51 H24         2.7743    4.5780   -1.9903 H         1 <0>         0.0353
     52 H25         3.3834    2.9315   -1.6097 H         1 <0>         0.0662
     53 H26         2.3812    6.1334   -0.1689 H         1 <0>         0.0639
     54 H27         2.3111    5.5208    1.5182 H         1 <0>         0.0889
     55 H28         4.8470    6.6920   -1.1012 H         1 <0>         0.1612
     56 H29         9.9805    7.2802    2.0307 H         1 <0>         0.0851
     57 H30         8.7849    8.2192    1.0738 H         1 <0>         0.0664
     58 H31         9.3160    6.5996    0.5068 H         1 <0>         0.0656
     59 H32         9.2407    6.4065    3.8334 H         1 <0>         0.0961
     60 H33         8.0374    5.0895    3.6228 H         1 <0>         0.0645
     61 H34         7.5063    6.7092    4.1897 H         1 <0>         0.0665
     62 H35         2.5894   -0.2827    0.3540 H         1 <0>         0.4414
@<TRIPOS>BOND
     1    1    2 1
     2    1   29 1
     3    1   30 1
     4    1   31 1
     5    2    7 ar
     6    2    3 ar
     7    3    4 ar
     8    3   32 1
     9    4    5 ar
    10    4   33 1
    11    5    6 ar
    12    5   34 1
    13    6    7 ar
    14    6   35 1
    15    7    8 1
    16    8    9 1
    17    8   36 1
    18    8   37 1
    19    9   10 1
    20    9   38 1
    21    9   39 1
    22   10   16 1
    23   10   11 1
    24   10   62 1
    25   11   12 1
    26   11   40 1
    27   11   41 1
    28   12   13 1
    29   12   42 1
    30   12   43 1
    31   13   14 1
    32   13   44 1
    33   13   45 1
    34   14   15 1
    35   14   16 1
    36   14   17 1
    37   16   46 1
    38   16   47 1
    39   17   18 1
    40   17   48 1
    41   17   49 1
    42   18   19 1
    43   18   20 1
    44   19   50 1
    45   19   51 1
    46   19   52 1
    47   20   21 1
    48   20   53 1
    49   20   54 1
    50   21   25 1
    51   21   22 2
    52   22   23 1
    53   22   55 1
    54   23   24 2
    55   24   25 1
    56   24   26 1
    57   26   27 1
    58   26   28 1
    59   27   56 1
    60   27   57 1
    61   27   58 1
    62   28   59 1
    63   28   60 1
    64   28   61 1
@<TRIPOS>MOLECULE
ZINC32797230
   52    55     0     0     0
SMALL
USER_CHARGES
2-[(4-fluorophenoxy)methyl]-4-[[(2S)-2-(4-methoxyphenyl)pyrrolidin-1-yl]methyl]thiazole
@<TRIPOS>ATOM
      1 C1         11.6368   -6.4145   -1.1655 C.3       1 <0>         0.0178
      2 O1         10.8398   -5.9295   -0.0831 O.3       1 <0>        -0.3069
      3 C2          9.7342   -5.2083   -0.4059 C.ar      1 <0>         0.1588
      4 C3          8.9150   -4.7068    0.5952 C.ar      1 <0>        -0.1395
      5 C4          7.7914   -3.9743    0.2645 C.ar      1 <0>        -0.0534
      6 C5          7.4827   -3.7412   -1.0630 C.ar      1 <0>        -0.1776
      7 C6          8.2944   -4.2447   -2.0626 C.ar      1 <0>        -0.0776
      8 C7          9.4225   -4.9726   -1.7370 C.ar      1 <0>        -0.1961
      9 C8          6.2561   -2.9422   -1.4209 C.3       1 <0>         0.0778
     10 H1          5.9864   -2.3870   -0.5104 H         1 <0>         0.1448
     11 C9          5.1430   -3.8674   -1.9737 C.3       1 <0>        -0.1304
     12 C10         4.2892   -2.9061   -2.8323 C.3       1 <0>        -0.1409
     13 C11         5.2243   -1.7299   -3.1694 C.3       1 <0>        -0.0128
     14 N1          6.5377   -2.0314   -2.5599 N.4       1 <0>        -0.3974
     15 C12         7.1992   -0.8028   -2.1004 C.3       1 <0>         0.0726
     16 C13         6.4613   -0.2508   -0.9080 C.2       1 <0>         0.0036
     17 C14         6.8609   -0.5468    0.3551 C.2       1 <0>        -0.1911
     18 S1          5.6476    0.3592    1.3041 S.3       1 <0>         0.1665
     19 C15         4.7611    1.0180   -0.0360 C.2       1 <0>         0.0903
     20 N2          5.4097    0.5256   -1.0659 N.2       1 <0>        -0.4864
     21 C16         3.5529    1.9187   -0.0207 C.3       1 <0>         0.1418
     22 O2          2.3658    1.1232   -0.0136 O.3       1 <0>        -0.3075
     23 C17         1.1789    1.7859    0.0004 C.ar      1 <0>         0.1120
     24 C18        -0.0126    1.0758    0.0080 C.ar      1 <0>        -0.1149
     25 C19        -1.2181    1.7506    0.0173 C.ar      1 <0>        -0.1115
     26 C20        -1.2372    3.1349    0.0293 C.ar      1 <0>         0.0732
     27 C21        -0.0486    3.8450    0.0222 C.ar      1 <0>        -0.1109
     28 C22         1.1583    3.1728    0.0076 C.ar      1 <0>        -0.1775
     29 F1         -2.4167    3.7935    0.0432 F         1 <0>        -0.1341
     30 H2         12.4936   -6.9773   -0.7665 H         1 <0>         0.1128
     31 H3         12.0016   -5.5650   -1.7615 H         1 <0>         0.0623
     32 H4         11.0287   -7.0745   -1.8016 H         1 <0>         0.0630
     33 H5          9.1557   -4.8886    1.6322 H         1 <0>         0.1449
     34 H6          7.1534   -3.5837    1.0434 H         1 <0>         0.1368
     35 H7          8.0485   -4.0653   -3.0989 H         1 <0>         0.1226
     36 H8         10.0588   -5.3616   -2.5181 H         1 <0>         0.1409
     37 H9          5.5980   -4.6743   -2.5670 H         1 <0>         0.0995
     38 H10         4.5779   -4.3021   -1.1360 H         1 <0>         0.1132
     39 H11         3.9511   -3.4274   -3.7400 H         1 <0>         0.1054
     40 H12         3.4150   -2.5750   -2.2525 H         1 <0>         0.1017
     41 H13         5.3157   -1.6355   -4.2615 H         1 <0>         0.1329
     42 H14         4.8081   -0.8000   -2.7545 H         1 <0>         0.1459
     43 H15         8.2374   -1.0296   -1.8163 H         1 <0>         0.1439
     44 H16         7.1950   -0.0590   -2.9108 H         1 <0>         0.1456
     45 H17         7.6837   -1.1596    0.6927 H         1 <0>         0.2094
     46 H18         3.5771    2.5493    0.8803 H         1 <0>         0.1024
     47 H19         3.5606    2.5578   -0.9159 H         1 <0>         0.1080
     48 H20         0.0021   -0.0041    0.0020 H         1 <0>         0.1421
     49 H21        -2.1459    1.1979    0.0187 H         1 <0>         0.1476
     50 H22        -0.0650    4.9249    0.0278 H         1 <0>         0.1436
     51 H23         2.0852    3.7270    0.0013 H         1 <0>         0.1387
     52 H24         7.2249   -2.4873   -3.2879 H         1 <0>         0.4442
@<TRIPOS>BOND
     1    1    2 1
     2    1   30 1
     3    1   31 1
     4    1   32 1
     5    2    3 1
     6    3    8 ar
     7    3    4 ar
     8    4    5 ar
     9    4   33 1
    10    5    6 ar
    11    5   34 1
    12    6    7 ar
    13    6    9 1
    14    7    8 ar
    15    7   35 1
    16    8   36 1
    17    9   10 1
    18    9   14 1
    19    9   11 1
    20   11   12 1
    21   11   37 1
    22   11   38 1
    23   12   13 1
    24   12   39 1
    25   12   40 1
    26   13   14 1
    27   13   41 1
    28   13   42 1
    29   14   15 1
    30   14   52 1
    31   15   16 1
    32   15   43 1
    33   15   44 1
    34   16   20 1
    35   16   17 2
    36   17   18 1
    37   17   45 1
    38   18   19 1
    39   19   20 2
    40   19   21 1
    41   21   22 1
    42   21   46 1
    43   21   47 1
    44   22   23 1
    45   23   28 ar
    46   23   24 ar
    47   24   25 ar
    48   24   48 1
    49   25   26 ar
    50   25   49 1
    51   26   27 ar
    52   26   29 1
    53   27   28 ar
    54   27   50 1
    55   28   51 1
@<TRIPOS>MOLECULE
ZINC39834649
   54    56     0     0     0
SMALL
USER_CHARGES

@<TRIPOS>ATOM
      1 C1         -1.4981    0.6684    0.4887 C.3       1 <0>        -0.1573
      2 C2         -1.2771   -0.8161    0.1912 C.3       1 <0>        -0.1245
      3 C3         -0.1647   -0.9677   -0.8483 C.3       1 <0>        -0.1215
      4 C4          0.0564   -2.4522   -1.1457 C.3       1 <0>        -0.1527
      5 C5          1.1688   -2.6038   -2.1852 C.3       1 <0>         0.0344
      6 N1          1.4848   -4.0238   -2.3587 N.pl3     1 <0>        -0.4205
      7 C6          2.5470   -4.5326   -1.7509 C.2       1 <0>         0.1269
      8 C7          2.8417   -5.8568   -1.9121 C.2       1 <0>        -0.1830
      9 S1          1.5106   -6.3641   -2.9928 S.3       1 <0>         0.2572
     10 C8          0.7026   -4.7743   -3.1135 C.cat     1 <0>         0.3579
     11 N2         -0.4404   -4.4223   -3.8139 N.pl3     1 <0>        -0.5616
     12 C9         -1.2016   -5.4086   -4.4524 C.ar      1 <0>         0.0565
     13 C10        -1.3583   -6.6559   -3.8622 C.ar      1 <0>        -0.0954
     14 C11        -2.1097   -7.6280   -4.4925 C.ar      1 <0>        -0.1188
     15 C12        -2.7080   -7.3590   -5.7147 C.ar      1 <0>         0.1536
     16 C13        -2.5517   -6.1135   -6.3051 C.ar      1 <0>        -0.1816
     17 C14        -1.8053   -5.1383   -5.6735 C.ar      1 <0>        -0.0641
     18 O1         -3.4478   -8.3169   -6.3347 O.3       1 <0>        -0.3051
     19 C15        -4.0352   -7.9713   -7.5907 C.3       1 <0>         0.0199
     20 C16         3.4083   -3.6719   -0.9038 C.ar      1 <0>        -0.1204
     21 C17         2.8411   -2.6554   -0.1369 C.ar      1 <0>        -0.0877
     22 C18         3.6448   -1.8568    0.6498 C.ar      1 <0>        -0.1463
     23 C19         5.0170   -2.0641    0.6779 C.ar      1 <0>         0.1670
     24 C20         5.5849   -3.0752   -0.0850 C.ar      1 <0>        -0.2050
     25 C21         4.7860   -3.8815   -0.8686 C.ar      1 <0>        -0.0321
     26 O2          5.8062   -1.2752    1.4537 O.3       1 <0>        -0.3066
     27 C22         7.2097   -1.5435    1.4354 C.3       1 <0>         0.0203
     28 H1         -0.5766    1.1023    0.8767 H         1 <0>         0.0579
     29 H2         -1.7847    1.1839   -0.4279 H         1 <0>         0.0567
     30 H3         -2.2906    0.7764    1.2293 H         1 <0>         0.0610
     31 H4         -0.9905   -1.3316    1.1079 H         1 <0>         0.0659
     32 H5         -2.1986   -1.2500   -0.1968 H         1 <0>         0.0645
     33 H6         -0.4513   -0.4522   -1.7649 H         1 <0>         0.0751
     34 H7          0.7568   -0.5337   -0.4602 H         1 <0>         0.0764
     35 H8          0.3430   -2.9677   -0.2291 H         1 <0>         0.0923
     36 H9         -0.8651   -2.8861   -1.5338 H         1 <0>         0.0806
     37 H10         0.8369   -2.1867   -3.1360 H         1 <0>         0.1114
     38 H11         2.0580   -2.0725   -1.8460 H         1 <0>         0.1428
     39 H12         3.6546   -6.4369   -1.5008 H         1 <0>         0.2351
     40 H13        -0.8922   -6.8657   -2.9108 H         1 <0>         0.1370
     41 H14        -2.2314   -8.5982   -4.0338 H         1 <0>         0.1520
     42 H15        -3.0173   -5.9051   -7.2571 H         1 <0>         0.1488
     43 H16        -1.6874   -4.1672   -6.1312 H         1 <0>         0.1419
     44 H17        -4.7069   -7.1234   -7.4567 H         1 <0>         0.0631
     45 H18        -3.2498   -7.7044   -8.2979 H         1 <0>         0.0629
     46 H19        -4.5968   -8.8225   -7.9757 H         1 <0>         0.1116
     47 H20         1.7736   -2.4932   -0.1589 H         1 <0>         0.1528
     48 H21         3.2059   -1.0691    1.2442 H         1 <0>         0.1451
     49 H22         6.6530   -3.2335   -0.0615 H         1 <0>         0.1447
     50 H23         5.2279   -4.6711   -1.4582 H         1 <0>         0.1391
     51 H24         7.3891   -2.5631    1.7766 H         1 <0>         0.0633
     52 H25         7.5884   -1.4283    0.4198 H         1 <0>         0.0627
     53 H26         7.7220   -0.8439    2.0958 H         1 <0>         0.1108
     54 H27        -0.7129   -3.4926   -3.8617 H         1 <0>         0.4350
@<TRIPOS>BOND
     1    1    2 1
     2    1   28 1
     3    1   29 1
     4    1   30 1
     5    2    3 1
     6    2   31 1
     7    2   32 1
     8    3    4 1
     9    3   33 1
    10    3   34 1
    11    4    5 1
    12    4   35 1
    13    4   36 1
    14    5    6 1
    15    5   37 1
    16    5   38 1
    17    6   10 2
    18    6    7 1
    19    7    8 2
    20    7   20 1
    21    8    9 1
    22    8   39 1
    23    9   10 1
    24   10   11 1
    25   11   12 1
    26   11   54 1
    27   12   17 ar
    28   12   13 ar
    29   13   14 ar
    30   13   40 1
    31   14   15 ar
    32   14   41 1
    33   15   16 ar
    34   15   18 1
    35   16   17 ar
    36   16   42 1
    37   17   43 1
    38   18   19 1
    39   19   44 1
    40   19   45 1
    41   19   46 1
    42   20   25 ar
    43   20   21 ar
    44   21   22 ar
    45   21   47 1
    46   22   23 ar
    47   22   48 1
    48   23   24 ar
    49   23   26 1
    50   24   25 ar
    51   24   49 1
    52   25   50 1
    53   26   27 1
    54   27   51 1
    55   27   52 1
    56   27   53 1
@<TRIPOS>MOLECULE
ZINC39946105
   49    53     0     0     0
SMALL
USER_CHARGES

@<TRIPOS>ATOM
      1 C1         -0.0167    1.3781    0.0096 C.ar      1 <0>        -0.0981
      2 C2          1.1709    2.0855    0.0021 C.ar      1 <0>        -0.1110
      3 C3          2.3773    1.4107   -0.0130 C.ar      1 <0>        -0.1160
      4 C4          2.3960    0.0285   -0.0201 C.ar      1 <0>        -0.1107
      5 C5          1.2084   -0.6789   -0.0117 C.ar      1 <0>        -0.0904
      6 C6          0.0021   -0.0041    0.0020 C.ar      1 <0>        -0.1075
      7 C7          3.7112   -0.7071   -0.0376 C.3       1 <0>        -0.0996
      8 H1          4.5299    0.0124   -0.0426 H         1 <0>         0.1288
      9 C8          3.7899   -1.5662   -1.2732 C.2       1 <0>         0.4187
     10 O1          3.4673   -2.7357   -1.2212 O.2       1 <0>        -0.3588
     11 C9          4.2383   -1.0116   -2.4907 C.2       1 <0>        -0.0386
     12 C10         4.3632   -1.6565   -3.7081 C.ar      1 <0>        -0.0638
     13 C11         4.1080   -2.9844   -4.1242 C.ar      1 <0>        -0.0564
     14 C12         4.3248   -3.3499   -5.4075 C.ar      1 <0>        -0.1107
     15 C13         4.8039   -2.4531   -6.3759 C.ar      1 <0>         0.0324
     16 C14         5.0792   -1.1640   -6.0823 C.ar      1 <0>        -0.1843
     17 C15         4.8703   -0.6832   -4.7064 C.ar      1 <0>         0.3187
     18 N1          5.0497    0.4836   -4.1563 N.pl3     1 <0>        -0.5434
     19 C16         4.6772    0.4148   -2.7398 C.3       1 <0>         0.0641
     20 S1          3.8369   -1.7560    1.4371 S.3       1 <0>        -0.0221
     21 C17         3.8786   -0.6088    2.7738 C.ar      1 <0>        -0.0977
     22 C18         3.8104    0.7556    2.5214 C.ar      1 <0>        -0.1338
     23 C19         3.8440    1.6549    3.5693 C.ar      1 <0>        -0.0941
     24 C20         3.9454    1.1998    4.8756 C.ar      1 <0>         0.0565
     25 C21         4.0112   -0.1647    5.1319 C.ar      1 <0>         0.0742
     26 C22         3.9738   -1.0679    4.0806 C.ar      1 <0>        -0.0892
     27 O2          4.1032   -0.6302    6.4077 O.3       1 <0>        -0.3027
     28 C23         4.5084    0.3100    7.4085 C.3       1 <0>         0.0195
     29 C24         3.7046    1.6018    7.2078 C.3       1 <0>         0.0187
     30 O3          3.9813    2.1025    5.8954 O.3       1 <0>        -0.3043
     31 H2         -0.9591    1.9053    0.0259 H         1 <0>         0.1314
     32 H3          1.1563    3.1654    0.0076 H         1 <0>         0.1322
     33 H4          3.3051    1.9634   -0.0196 H         1 <0>         0.1282
     34 H5          1.2231   -1.7588   -0.0176 H         1 <0>         0.1330
     35 H6         -0.9258   -0.5567    0.0082 H         1 <0>         0.1327
     36 H7          3.7388   -3.7092   -3.4137 H         1 <0>         0.1690
     37 H8          4.1221   -4.3699   -5.6988 H         1 <0>         0.1619
     38 H9          4.9572   -2.8048   -7.3855 H         1 <0>         0.1694
     39 H10         5.4475   -0.4951   -6.8461 H         1 <0>         0.1714
     40 H11         3.8567    1.1015   -2.5317 H         1 <0>         0.1858
     41 H12         5.5373    0.6571   -2.1156 H         1 <0>         0.1855
     42 H13         3.7315    1.1133    1.5054 H         1 <0>         0.1372
     43 H14         3.7914    2.7152    3.3709 H         1 <0>         0.1395
     44 H15         4.0231   -2.1285    4.2780 H         1 <0>         0.1420
     45 H16         4.3072   -0.0980    8.3991 H         1 <0>         0.1289
     46 H17         5.5731    0.5199    7.3061 H         1 <0>         0.0821
     47 H18         2.6395    1.3908    7.3037 H         1 <0>         0.0817
     48 H19         4.0023    2.3395    7.9530 H         1 <0>         0.1284
     49 H20         5.3749    1.2752   -4.6130 H         1 <0>         0.4613
@<TRIPOS>BOND
     1    1    6 ar
     2    1    2 ar
     3    1   31 1
     4    2    3 ar
     5    2   32 1
     6    3    4 ar
     7    3   33 1
     8    4    5 ar
     9    4    7 1
    10    5    6 ar
    11    5   34 1
    12    6   35 1
    13    7    8 1
    14    7    9 1
    15    7   20 1
    16    9   10 2
    17    9   11 1
    18   11   19 1
    19   11   12 2
    20   12   17 ar
    21   12   13 ar
    22   13   14 ar
    23   13   36 1
    24   14   15 ar
    25   14   37 1
    26   15   16 ar
    27   15   38 1
    28   16   17 ar
    29   16   39 1
    30   17   18 2
    31   18   19 1
    32   18   49 1
    33   19   40 1
    34   19   41 1
    35   20   21 1
    36   21   26 ar
    37   21   22 ar
    38   22   23 ar
    39   22   42 1
    40   23   24 ar
    41   23   43 1
    42   24   30 1
    43   24   25 ar
    44   25   26 ar
    45   25   27 1
    46   26   44 1
    47   27   28 1
    48   28   29 1
    49   28   45 1
    50   28   46 1
    51   29   30 1
    52   29   47 1
    53   29   48 1
@<TRIPOS>MOLECULE
ZINC10199204
   56    58     0     0     0
SMALL
USER_CHARGES
2-[[5-(cyclohexyl-methyl-sulfamoyl)-2-pyridyl]sulfanyl]-N-methyl-N-(3-thienylmethyl)acetamide
@<TRIPOS>ATOM
      1 C1         -0.0178    1.4608    0.0101 C.3       1 <0>         0.0721
      2 N1          0.0021   -0.0041    0.0020 N.am      1 <0>        -0.6043
      3 C2          0.0241   -0.7433    1.2666 C.3       1 <0>         0.1730
      4 C3         -1.3889   -1.0161    1.7137 C.2       1 <0>        -0.1560
      5 C4         -2.0532   -0.1174    2.5272 C.2       1 <0>        -0.1479
      6 C5         -3.3255   -0.3903    2.9068 C.2       1 <0>        -0.1752
      7 S1         -3.6166   -1.9649    2.1173 S.3       1 <0>         0.0360
      8 C6         -2.0256   -2.1491    1.3287 C.2       1 <0>        -0.1384
      9 C7          0.0001   -0.6716   -1.1688 C.2       1 <0>         0.5339
     10 O1          0.0165   -1.8843   -1.1755 O.2       1 <0>        -0.5196
     11 C8         -0.0226    0.0888   -2.4697 C.3       1 <0>        -0.1447
     12 S2         -0.0198   -1.0824   -3.8549 S.3       1 <0>         0.0348
     13 C9         -0.0474   -0.0524   -5.2842 C.ar      1 <0>         0.1508
     14 C10        -0.0515   -0.6298   -6.5507 C.ar      1 <0>        -0.1696
     15 C11        -0.0732    0.1906   -7.6635 C.ar      1 <0>         0.0442
     16 C12        -0.0901    1.5664   -7.4728 C.ar      1 <0>        -0.7469
     17 C13        -0.0848    2.0713   -6.1882 C.ar      1 <0>         0.2203
     18 N2         -0.0694    1.2646   -5.1439 N.ar      1 <0>        -0.5074
     19 S3         -0.1175    2.6563   -8.8570 S.o2      1 <0>         2.6953
     20 O2          0.4207    3.8934   -8.4106 O.2       1 <0>        -0.9490
     21 O3          0.4332    1.9366   -9.9516 O.2       1 <0>        -0.9494
     22 N3         -1.7069    2.9377   -9.2273 N.pl3     1 <0>        -0.9945
     23 C14        -2.4163    4.0590   -8.6061 C.3       1 <0>         0.0891
     24 C15        -2.4035    2.0655  -10.1760 C.3       1 <0>         0.1457
     25 C16        -2.8965    2.8944  -11.3637 C.3       1 <0>        -0.1251
     26 C17        -3.6241    1.9835  -12.3545 C.3       1 <0>        -0.1197
     27 C18        -4.8187    1.3261  -11.6604 C.3       1 <0>        -0.1225
     28 C19        -4.3256    0.4971  -10.4727 C.3       1 <0>        -0.1191
     29 C20        -3.5981    1.4081   -9.4819 C.3       1 <0>        -0.1305
     30 H1          1.0048    1.8381    0.0023 H         1 <0>         0.0642
     31 H2         -0.5450    1.8219   -0.8730 H         1 <0>         0.0744
     32 H3         -0.5280    1.8123    0.9069 H         1 <0>         0.0773
     33 H4          0.5496   -1.6879    1.1262 H         1 <0>         0.0960
     34 H5          0.5371   -0.1514    2.0246 H         1 <0>         0.0897
     35 H6         -1.5671    0.7906    2.8522 H         1 <0>         0.1322
     36 H7         -3.9891    0.1913    3.5294 H         1 <0>         0.1857
     37 H8         -1.6641   -2.9545    0.7066 H         1 <0>         0.1888
     38 H9         -0.9215    0.7036   -2.5156 H         1 <0>         0.1238
     39 H10         0.8582    0.7278   -2.5324 H         1 <0>         0.1245
     40 H11        -0.0376   -1.7039   -6.6627 H         1 <0>         0.1523
     41 H12        -0.0766   -0.2289   -8.6587 H         1 <0>         0.1566
     42 H13        -0.0979    3.1404   -6.0356 H         1 <0>         0.1743
     43 H14        -2.3036    4.9484   -9.2261 H         1 <0>         0.0646
     44 H15        -3.4740    3.8127   -8.5127 H         1 <0>         0.0772
     45 H16        -1.9990    4.2500   -7.6175 H         1 <0>         0.0712
     46 H17        -1.7195    1.2942  -10.5302 H         1 <0>         0.1013
     47 H18        -3.5805    3.6657  -11.0095 H         1 <0>         0.0700
     48 H19        -2.0455    3.3628  -11.8582 H         1 <0>         0.0694
     49 H20        -2.9401    1.2122  -12.7087 H         1 <0>         0.0666
     50 H21        -3.9754    2.5740  -13.2006 H         1 <0>         0.0680
     51 H22        -5.3370    0.6771  -12.3663 H         1 <0>         0.0648
     52 H23        -5.5027    2.0973  -11.3062 H         1 <0>         0.0629
     53 H24        -3.6417   -0.2741  -10.8269 H         1 <0>         0.0657
     54 H25        -5.1767    0.0288   -9.9783 H         1 <0>         0.0668
     55 H26        -3.2468    0.8175   -8.6358 H         1 <0>         0.0646
     56 H27        -4.2821    2.1793   -9.1277 H         1 <0>         0.0712
@<TRIPOS>BOND
     1    1    2 1
     2    1   30 1
     3    1   31 1
     4    1   32 1
     5    2    3 1
     6    2    9 am
     7    3    4 1
     8    3   33 1
     9    3   34 1
    10    4    8 2
    11    4    5 1
    12    5    6 2
    13    5   35 1
    14    6    7 1
    15    6   36 1
    16    7    8 1
    17    8   37 1
    18    9   10 2
    19    9   11 1
    20   11   12 1
    21   11   38 1
    22   11   39 1
    23   12   13 1
    24   13   18 ar
    25   13   14 ar
    26   14   15 ar
    27   14   40 1
    28   15   16 ar
    29   15   41 1
    30   16   17 ar
    31   16   19 1
    32   17   18 ar
    33   17   42 1
    34   19   20 2
    35   19   21 2
    36   19   22 1
    37   22   23 1
    38   22   24 1
    39   23   43 1
    40   23   44 1
    41   23   45 1
    42   24   29 1
    43   24   25 1
    44   24   46 1
    45   25   26 1
    46   25   47 1
    47   25   48 1
    48   26   27 1
    49   26   49 1
    50   26   50 1
    51   27   28 1
    52   27   51 1
    53   27   52 1
    54   28   29 1
    55   28   53 1
    56   28   54 1
    57   29   55 1
    58   29   56 1
@<TRIPOS>MOLECULE
ZINC10399519
   51    52     0     0     0
SMALL
USER_CHARGES
N-butyl-2-[[3-cyano-6-methyl-4-(trifluoromethyl)-2-pyridyl]sulfanyl]-N-(1,1-dioxothiolan-3-yl)-acetamide
@<TRIPOS>ATOM
      1 C1         -4.5190   -1.1170   -2.7522 C.3       1 <0>        -0.1534
      2 C2         -3.0902   -0.6696   -3.0672 C.3       1 <0>        -0.1229
      3 C3         -2.5680    0.2086   -1.9283 C.3       1 <0>        -0.1418
      4 C4         -1.1392    0.6560   -2.2432 C.3       1 <0>         0.1107
      5 N1         -0.6924    1.6136   -1.2285 N.am      1 <0>        -0.5928
      6 C5          0.1061    1.1544   -0.0892 C.3       1 <0>         0.1289
      7 H1          0.2703    1.9810    0.6021 H         1 <0>         0.1199
      8 C6          1.4581    0.6166   -0.5864 C.3       1 <0>        -0.1410
      9 C7          2.1689   -0.1563    0.5507 C.3       1 <0>        -0.5755
     10 S1          0.7615   -0.7698    1.5632 S.o2      1 <0>         2.3716
     11 O1          0.8357   -0.1891    2.8580 O.2       1 <0>        -0.9266
     12 O2          0.6793   -2.1826    1.4342 O.2       1 <0>        -0.9280
     13 C8         -0.6361   -0.0013    0.6407 C.3       1 <0>        -0.6025
     14 C9         -1.0160    2.9169   -1.3430 C.2       1 <0>         0.5337
     15 O3         -1.7563    3.2821   -2.2315 O.2       1 <0>        -0.5051
     16 C10        -0.4581    3.9204   -0.3669 C.3       1 <0>        -0.1595
     17 S2         -1.1135    5.5635   -0.7499 S.3       1 <0>         0.0623
     18 C11        -0.3206    6.5098    0.5072 C.ar      1 <0>         0.1482
     19 C12        -0.5467    7.8958    0.5872 C.ar      1 <0>        -0.0195
     20 C13         0.0905    8.6250    1.5972 C.ar      1 <0>        -0.0719
     21 C14         0.9261    7.9487    2.4693 C.ar      1 <0>        -0.1332
     22 C15         1.1027    6.5846    2.3241 C.ar      1 <0>         0.1862
     23 N2          0.4894    5.9135    1.3687 N.ar      1 <0>        -0.4713
     24 C16         2.0135    5.8516    3.2750 C.3       1 <0>        -0.1137
     25 C17        -0.1231   10.1109    1.7288 C.3       1 <0>         0.5081
     26 F1          0.6263   10.5962    2.8058 F         1 <0>        -0.1637
     27 F2          0.2861   10.7469    0.5518 F         1 <0>        -0.1646
     28 F3         -1.4800   10.3691    1.9508 F         1 <0>        -0.1644
     29 C18        -1.4167    8.5478   -0.3448 C.1       1 <0>         0.2262
     30 N3         -2.1069    9.0650   -1.0842 N.1       1 <0>        -0.3498
     31 H2         -4.5249   -1.6861   -1.8226 H         1 <0>         0.0540
     32 H3         -5.1590   -0.2411   -2.6461 H         1 <0>         0.0547
     33 H4         -4.8910   -1.7426   -3.5636 H         1 <0>         0.0565
     34 H5         -3.0842   -0.1005   -3.9968 H         1 <0>         0.0654
     35 H6         -2.4502   -1.5455   -3.1733 H         1 <0>         0.0636
     36 H7         -2.5739   -0.3605   -0.9986 H         1 <0>         0.0678
     37 H8         -3.2080    1.0845   -1.8221 H         1 <0>         0.0733
     38 H9         -1.1147    1.1290   -3.2249 H         1 <0>         0.0894
     39 H10        -0.4782   -0.2107   -2.2409 H         1 <0>         0.0851
     40 H11         1.2930   -0.0527   -1.4307 H         1 <0>         0.0956
     41 H12         2.0845    1.4502   -0.9039 H         1 <0>         0.1043
     42 H13         2.8028    0.5113    1.1343 H         1 <0>         0.1449
     43 H14         2.7499   -0.9880    0.1522 H         1 <0>         0.1474
     44 H15        -1.3934    0.3852    1.3227 H         1 <0>         0.1502
     45 H16        -1.0711   -0.7024   -0.0716 H         1 <0>         0.1507
     46 H17        -0.7470    3.6411    0.6464 H         1 <0>         0.1309
     47 H18         0.6291    3.9359   -0.4434 H         1 <0>         0.1322
     48 H19         1.4366    8.4824    3.2573 H         1 <0>         0.1669
     49 H20         3.0273    5.8451    2.8748 H         1 <0>         0.0937
     50 H21         2.0081    6.3532    4.2427 H         1 <0>         0.0894
     51 H22         1.6638    4.8262    3.3954 H         1 <0>         0.0897
@<TRIPOS>BOND
     1    1    2 1
     2    1   31 1
     3    1   32 1
     4    1   33 1
     5    2    3 1
     6    2   34 1
     7    2   35 1
     8    3    4 1
     9    3   36 1
    10    3   37 1
    11    4    5 1
    12    4   38 1
    13    4   39 1
    14    5    6 1
    15    5   14 am
    16    6    7 1
    17    6   13 1
    18    6    8 1
    19    8    9 1
    20    8   40 1
    21    8   41 1
    22    9   10 1
    23    9   42 1
    24    9   43 1
    25   10   11 2
    26   10   12 2
    27   10   13 1
    28   13   44 1
    29   13   45 1
    30   14   15 2
    31   14   16 1
    32   16   17 1
    33   16   46 1
    34   16   47 1
    35   17   18 1
    36   18   23 ar
    37   18   19 ar
    38   19   20 ar
    39   19   29 1
    40   20   21 ar
    41   20   25 1
    42   21   22 ar
    43   21   48 1
    44   22   23 ar
    45   22   24 1
    46   24   49 1
    47   24   50 1
    48   24   51 1
    49   25   26 1
    50   25   27 1
    51   25   28 1
    52   29   30 3
@<TRIPOS>MOLECULE
ZINC22133060
   61    63     0     0     0
SMALL
USER_CHARGES
N-[(3R)-1,1-dioxothiolan-3-yl]-N-isobutyl-2-[1-(2-isopropylphenyl)imidazol-2-yl]sulfanyl-acetamide
@<TRIPOS>ATOM
      1 C1          8.1818    4.0556   -1.4746 C.3       1 <0>        -0.1598
      2 C2          7.1095    3.0245   -1.1167 C.3       1 <0>        -0.1163
      3 C3          7.7420    1.6330   -1.0503 C.3       1 <0>        -0.1491
      4 C4          6.5004    3.3733    0.2429 C.3       1 <0>         0.1032
      5 N1          5.7673    4.6374    0.1397 N.am      1 <0>        -0.5942
      6 C5          6.4172    5.8942    0.5195 C.3       1 <0>         0.1439
      7 H1          7.4586    5.6327    0.7587 H         1 <0>         0.1168
      8 C6          5.7018    6.5015    1.7377 C.3       1 <0>        -0.1453
      9 C7          6.1650    7.9633    1.9470 C.3       1 <0>        -0.5804
     10 S1          6.6164    8.4918    0.2443 S.o2      1 <0>         2.3873
     11 O1          8.0045    8.7935    0.2066 O.2       1 <0>        -0.9343
     12 O2          5.6780    9.4600   -0.2043 O.2       1 <0>        -0.9293
     13 C8          6.3221    6.9104   -0.6543 C.3       1 <0>        -0.6114
     14 C9          4.4948    4.6442   -0.3046 C.2       1 <0>         0.5372
     15 O3          3.8879    5.6907   -0.3900 O.2       1 <0>        -0.5159
     16 C10         3.8262    3.3513   -0.6952 C.3       1 <0>        -0.1540
     17 S2          2.1354    3.6889   -1.2457 S.3       1 <0>         0.0726
     18 C11         1.6061    2.0526   -1.6293 C.2       1 <0>         0.1801
     19 N2          2.3288    0.9633   -1.5091 N.2       1 <0>        -0.4866
     20 C12         1.6007   -0.0989   -1.8929 C.2       1 <0>        -0.0140
     21 C13         0.3840    0.3330   -2.2658 C.2       1 <0>        -0.0361
     22 N3          0.3758    1.7018   -2.1022 N.pl3     1 <0>        -0.3956
     23 C14        -0.6916    2.5687   -2.3755 C.ar      1 <0>         0.0984
     24 C15        -1.8656    2.4802   -1.6394 C.ar      1 <0>        -0.0995
     25 C16        -2.9153    3.3355   -1.9110 C.ar      1 <0>        -0.1132
     26 C17        -2.7980    4.2795   -2.9149 C.ar      1 <0>        -0.0997
     27 C18        -1.6304    4.3697   -3.6498 C.ar      1 <0>        -0.1046
     28 C19        -0.5747    3.5209   -3.3786 C.ar      1 <0>        -0.0538
     29 C20         0.7001    3.6243   -4.1756 C.3       1 <0>        -0.0643
     30 C21         0.3970    3.3843   -5.6560 C.3       1 <0>        -0.1431
     31 C22         1.3009    5.0202   -3.9979 C.3       1 <0>        -0.1466
     32 H2          7.7270    5.0560   -1.5223 H         1 <0>         0.0599
     33 H3          8.6198    3.8049   -2.4520 H         1 <0>         0.0604
     34 H4          8.9694    4.0471   -0.7068 H         1 <0>         0.0592
     35 H5          6.3218    3.0328   -1.8845 H         1 <0>         0.0750
     36 H6          6.9711    0.8917   -0.7930 H         1 <0>         0.0604
     37 H7          8.5296    1.6245   -0.2825 H         1 <0>         0.0588
     38 H8          8.1800    1.3823   -2.0277 H         1 <0>         0.0614
     39 H9          5.8110    2.5737    0.5518 H         1 <0>         0.0887
     40 H10         7.3024    3.4744    0.9889 H         1 <0>         0.0919
     41 H11         4.6148    6.4862    1.5698 H         1 <0>         0.1044
     42 H12         5.9425    5.9130    2.6353 H         1 <0>         0.0972
     43 H13         5.3384    8.5528    2.3702 H         1 <0>         0.1465
     44 H14         7.0201    7.9815    2.6388 H         1 <0>         0.1423
     45 H15         7.0923    6.6774   -1.4043 H         1 <0>         0.1459
     46 H16         5.3268    6.8432   -1.1178 H         1 <0>         0.1693
     47 H17         4.3906    2.8790   -1.5127 H         1 <0>         0.1283
     48 H18         3.8014    2.6748    0.1718 H         1 <0>         0.1258
     49 H19         1.9362   -1.1255   -1.8998 H         1 <0>         0.1770
     50 H20        -0.4322   -0.2763   -2.6250 H         1 <0>         0.1791
     51 H21        -1.9579    1.7430   -0.8556 H         1 <0>         0.1294
     52 H22        -3.8286    3.2674   -1.3386 H         1 <0>         0.1336
     53 H23        -3.6203    4.9473   -3.1255 H         1 <0>         0.1322
     54 H24        -1.5419    5.1076   -4.4334 H         1 <0>         0.1342
     55 H25         1.4060    2.8639   -3.8102 H         1 <0>         0.0790
     56 H26         1.3276    3.4598   -6.2377 H         1 <0>         0.0624
     57 H27        -0.3195    4.1398   -6.0107 H         1 <0>         0.0601
     58 H28        -0.0350    2.3808   -5.7838 H         1 <0>         0.0530
     59 H29         2.2314    5.0956   -4.5797 H         1 <0>         0.0618
     60 H30         1.5188    5.1928   -2.9336 H         1 <0>         0.0738
     61 H31         0.5844    5.7756   -4.3527 H         1 <0>         0.0568
@<TRIPOS>BOND
     1    1    2 1
     2    1   32 1
     3    1   33 1
     4    1   34 1
     5    2    3 1
     6    2    4 1
     7    2   35 1
     8    3   36 1
     9    3   37 1
    10    3   38 1
    11    4    5 1
    12    4   39 1
    13    4   40 1
    14    5    6 1
    15    5   14 am
    16    6    7 1
    17    6   13 1
    18    6    8 1
    19    8    9 1
    20    8   41 1
    21    8   42 1
    22    9   10 1
    23    9   43 1
    24    9   44 1
    25   10   11 2
    26   10   12 2
    27   10   13 1
    28   13   45 1
    29   13   46 1
    30   14   15 2
    31   14   16 1
    32   16   17 1
    33   16   47 1
    34   16   48 1
    35   17   18 1
    36   18   22 1
    37   18   19 2
    38   19   20 1
    39   20   21 2
    40   20   49 1
    41   21   22 1
    42   21   50 1
    43   22   23 1
    44   23   28 ar
    45   23   24 ar
    46   24   25 ar
    47   24   51 1
    48   25   26 ar
    49   25   52 1
    50   26   27 ar
    51   26   53 1
    52   27   28 ar
    53   27   54 1
    54   28   29 1
    55   29   30 1
    56   29   31 1
    57   29   55 1
    58   30   56 1
    59   30   57 1
    60   30   58 1
    61   31   59 1
    62   31   60 1
    63   31   61 1
@<TRIPOS>MOLECULE
ZINC31201897
   53    55     0     0     0
SMALL
USER_CHARGES
1-(4-bromophenyl)-N-[(4-ethoxy-3-methoxy-phenyl)methyl]-N,5-dimethyl-pyrazole-4-carboxamide
@<TRIPOS>ATOM
      1 C1          5.2948    1.0680   -3.0049 C.3       1 <0>        -0.1542
      2 C2          3.8270    1.1903   -2.5906 C.3       1 <0>         0.0519
      3 O1          3.5539    2.5365   -2.1966 O.3       1 <0>        -0.3053
      4 C3          2.2848    2.8172   -1.7964 C.ar      1 <0>         0.1062
      5 C4          1.3240    1.8189   -1.7834 C.ar      1 <0>        -0.1781
      6 C5          0.0329    2.1074   -1.3823 C.ar      1 <0>        -0.1025
      7 C6         -0.3001    3.3884   -0.9825 C.ar      1 <0>        -0.1071
      8 C7          0.6537    4.3890   -0.9931 C.ar      1 <0>        -0.1451
      9 C8          1.9482    4.1078   -1.3996 C.ar      1 <0>         0.0947
     10 O2          2.8879    5.0909   -1.4102 O.3       1 <0>        -0.3073
     11 C9          2.4708    6.3915   -0.9899 C.3       1 <0>         0.0236
     12 C10        -1.7076    3.6961   -0.5407 C.3       1 <0>         0.1605
     13 N1         -2.5045    4.1067   -1.6994 N.am      1 <0>        -0.6032
     14 C11        -3.2308    3.1034   -2.4817 C.3       1 <0>         0.0079
     15 C12        -2.5693    5.4076   -2.0457 C.2       1 <0>         0.5993
     16 O3         -1.8871    6.2272   -1.4612 O.2       1 <0>        -0.5408
     17 C13        -3.4672    5.8370   -3.1331 C.2       1 <0>        -0.2885
     18 C14        -4.4154    5.0326   -3.8050 C.2       1 <0>         0.0512
     19 N2         -5.0125    5.7721   -4.6988 N.2       1 <0>        -0.2824
     20 N3         -4.4836    7.0665   -4.6435 N.pl3     1 <0>        -0.3182
     21 C15        -3.5436    7.1017   -3.6817 C.2       1 <0>         0.1690
     22 C16        -2.7228    8.2999   -3.2795 C.3       1 <0>        -0.1049
     23 C17        -4.8719    8.1455   -5.4496 C.ar      1 <0>         0.1575
     24 C18        -6.2157    8.3591   -5.7256 C.ar      1 <0>        -0.0960
     25 C19        -6.5961    9.4263   -6.5155 C.ar      1 <0>        -0.0717
     26 C20        -5.6384   10.2756   -7.0409 C.ar      1 <0>        -0.0889
     27 C21        -4.2981   10.0616   -6.7720 C.ar      1 <0>        -0.0700
     28 C22        -3.9129    8.9992   -5.9781 C.ar      1 <0>        -0.1182
     29 Br1        -6.1622   11.7308   -8.1288 Br        1 <0>        -0.0344
     30 H1          5.5050    0.0318   -3.3082 H         1 <0>         0.0792
     31 H2          5.9393    1.3395   -2.1558 H         1 <0>         0.0675
     32 H3          5.4953    1.7448   -3.8485 H         1 <0>         0.0671
     33 H4          3.1825    0.9188   -3.4397 H         1 <0>         0.0611
     34 H5          3.6265    0.5135   -1.7470 H         1 <0>         0.0619
     35 H6          1.5826    0.8165   -2.0909 H         1 <0>         0.1341
     36 H7         -0.7163    1.3296   -1.3772 H         1 <0>         0.1251
     37 H8          0.3898    5.3899   -0.6850 H         1 <0>         0.1437
     38 H9          3.3222    7.0857   -1.0465 H         1 <0>         0.1011
     39 H10         2.1060    6.3424    0.0467 H         1 <0>         0.0558
     40 H11         1.6631    6.7475   -1.6464 H         1 <0>         0.0575
     41 H12        -2.1543    2.7986   -0.0880 H         1 <0>         0.0893
     42 H13        -1.6901    4.5099    0.1992 H         1 <0>         0.0935
     43 H14        -3.7671    3.5981   -3.3049 H         1 <0>         0.1294
     44 H15        -3.9523    2.5848   -1.8333 H         1 <0>         0.0675
     45 H16        -2.5183    2.3740   -2.8943 H         1 <0>         0.0651
     46 H17        -4.6112    3.9881   -3.6124 H         1 <0>         0.2385
     47 H18        -3.0093    9.1644   -3.8964 H         1 <0>         0.0761
     48 H19        -1.6554    8.0802   -3.4294 H         1 <0>         0.0987
     49 H20        -2.9045    8.5296   -2.2192 H         1 <0>         0.1016
     50 H21        -6.9633    7.6937   -5.3197 H         1 <0>         0.1444
     51 H22        -7.6416    9.5953   -6.7271 H         1 <0>         0.1460
     52 H23        -3.5525   10.7257   -7.1836 H         1 <0>         0.1469
     53 H24        -2.8665    8.8324   -5.7688 H         1 <0>         0.1438
@<TRIPOS>BOND
     1    1    2 1
     2    1   30 1
     3    1   31 1
     4    1   32 1
     5    2    3 1
     6    2   33 1
     7    2   34 1
     8    3    4 1
     9    4    9 ar
    10    4    5 ar
    11    5    6 ar
    12    5   35 1
    13    6    7 ar
    14    6   36 1
    15    7    8 ar
    16    7   12 1
    17    8    9 ar
    18    8   37 1
    19    9   10 1
    20   10   11 1
    21   11   38 1
    22   11   39 1
    23   11   40 1
    24   12   13 1
    25   12   41 1
    26   12   42 1
    27   13   14 1
    28   13   15 am
    29   14   43 1
    30   14   44 1
    31   14   45 1
    32   15   16 2
    33   15   17 1
    34   17   21 2
    35   17   18 1
    36   18   19 2
    37   18   46 1
    38   19   20 1
    39   20   21 1
    40   20   23 1
    41   21   22 1
    42   22   47 1
    43   22   48 1
    44   22   49 1
    45   23   28 ar
    46   23   24 ar
    47   24   25 ar
    48   24   50 1
    49   25   26 ar
    50   25   51 1
    51   26   27 ar
    52   26   29 1
    53   27   28 ar
    54   27   52 1
    55   28   53 1
@<TRIPOS>MOLECULE
ZINC59265091
   53    54     0     0     0
SMALL
USER_CHARGES

@<TRIPOS>ATOM
      1 C1         -0.5276    2.1702    1.0431 C.3       1 <0>        -0.1608
      2 C2         -0.2928    0.6606    1.1256 C.3       1 <0>         0.1362
      3 C3         -0.0896    0.2552    2.5869 C.3       1 <0>        -0.1663
      4 N1         -1.4551   -0.0449    0.5802 N.pl3     1 <0>        -0.9942
      5 C4         -2.7759    0.1415    1.1861 C.3       1 <0>         0.0839
      6 S1         -1.2761   -1.0531   -0.7213 S.o2      1 <0>         2.6817
      7 O1         -2.5474   -1.1329   -1.3511 O.2       1 <0>        -0.9433
      8 O2         -0.1101   -0.6233   -1.4105 O.2       1 <0>        -0.9468
      9 C5         -0.9247   -2.6604   -0.0907 C.ar      1 <0>        -0.6787
     10 C6          0.3863   -3.0428    0.1331 C.ar      1 <0>         0.0041
     11 C7          0.6708   -4.3027    0.6285 C.ar      1 <0>        -0.1343
     12 C8         -0.3525   -5.1870    0.9022 C.ar      1 <0>        -0.0108
     13 C9         -1.6768   -4.8077    0.6786 C.ar      1 <0>        -0.1528
     14 C10        -1.9572   -3.5327    0.1840 C.ar      1 <0>        -0.0191
     15 C11        -2.7782   -5.7502    0.9692 C.2       1 <0>         0.5740
     16 O3         -2.7331   -6.8876    0.5430 O.2       1 <0>        -0.4978
     17 N2         -3.8322   -5.3481    1.7068 N.am      1 <0>        -0.6020
     18 C12        -4.8552   -6.3158    2.1107 C.3       1 <0>         0.1372
     19 C13        -4.4781   -6.9208    3.4384 C.ar      1 <0>        -0.0842
     20 C14        -3.7011   -8.0650    3.4780 C.ar      1 <0>        -0.0957
     21 C15        -3.3522   -8.6240    4.6899 C.ar      1 <0>        -0.0702
     22 C16        -3.7847   -8.0322    5.8784 C.ar      1 <0>        -0.0190
     23 C17        -4.5681   -6.8774    5.8311 C.ar      1 <0>        -0.0709
     24 C18        -4.9056   -6.3262    4.6124 C.ar      1 <0>        -0.1067
     25 C19        -3.4267   -8.6073    7.1400 C.1       1 <0>         0.2475
     26 N3         -3.1427   -9.0635    8.1409 N.1       1 <0>        -0.4073
     27 C20        -3.9548   -3.9435    2.1044 C.3       1 <0>         0.0482
     28 C21        -5.0503   -3.2721    1.2738 C.3       1 <0>         0.4294
     29 F1         -6.2921   -3.8235    1.6070 F         1 <0>        -0.1730
     30 F2         -5.0629   -1.8990    1.5414 F         1 <0>        -0.1703
     31 F3         -4.7976   -3.4798   -0.0864 F         1 <0>        -0.1658
     32 H1          0.3372    2.6952    1.4490 H         1 <0>         0.0710
     33 H2         -0.6724    2.4591    0.0021 H         1 <0>         0.0622
     34 H3         -1.4149    2.4320    1.6196 H         1 <0>         0.0631
     35 H4          0.5945    0.3989    0.5492 H         1 <0>         0.1014
     36 H5          0.0776   -0.8203    2.6456 H         1 <0>         0.0586
     37 H6          0.7751    0.7801    2.9927 H         1 <0>         0.0720
     38 H7         -0.9770    0.5169    3.1633 H         1 <0>         0.0646
     39 H8         -3.2836    0.9754    0.7014 H         1 <0>         0.0662
     40 H9         -3.3655   -0.7664    1.0587 H         1 <0>         0.0694
     41 H10        -2.6613    0.3541    2.2490 H         1 <0>         0.0801
     42 H11         1.1909   -2.3546   -0.0801 H         1 <0>         0.1480
     43 H12         1.6961   -4.5950    0.8010 H         1 <0>         0.1461
     44 H13        -0.1290   -6.1706    1.2882 H         1 <0>         0.1430
     45 H14        -2.9802   -3.2315    0.0131 H         1 <0>         0.1512
     46 H15        -5.8171   -5.8111    2.2015 H         1 <0>         0.1057
     47 H16        -4.9274   -7.1030    1.3602 H         1 <0>         0.1112
     48 H17        -3.3674   -8.5216    2.5580 H         1 <0>         0.1403
     49 H18        -2.7463   -9.5175    4.7194 H         1 <0>         0.1357
     50 H19        -4.9059   -6.4146    6.7466 H         1 <0>         0.1362
     51 H20        -5.5081   -5.4307    4.5744 H         1 <0>         0.1345
     52 H21        -4.2140   -3.8865    3.1616 H         1 <0>         0.1329
     53 H22        -3.0064   -3.4337    1.9349 H         1 <0>         0.1342
@<TRIPOS>BOND
     1    1    2 1
     2    1   32 1
     3    1   33 1
     4    1   34 1
     5    2    3 1
     6    2    4 1
     7    2   35 1
     8    3   36 1
     9    3   37 1
    10    3   38 1
    11    4    5 1
    12    4    6 1
    13    5   39 1
    14    5   40 1
    15    5   41 1
    16    6    7 2
    17    6    8 2
    18    6    9 1
    19    9   14 ar
    20    9   10 ar
    21   10   11 ar
    22   10   42 1
    23   11   12 ar
    24   11   43 1
    25   12   13 ar
    26   12   44 1
    27   13   14 ar
    28   13   15 1
    29   14   45 1
    30   15   16 2
    31   15   17 am
    32   17   18 1
    33   17   27 1
    34   18   19 1
    35   18   46 1
    36   18   47 1
    37   19   24 ar
    38   19   20 ar
    39   20   21 ar
    40   20   48 1
    41   21   22 ar
    42   21   49 1
    43   22   23 ar
    44   22   25 1
    45   23   24 ar
    46   23   50 1
    47   24   51 1
    48   25   26 3
    49   27   28 1
    50   27   52 1
    51   27   53 1
    52   28   29 1
    53   28   30 1
    54   28   31 1
@<TRIPOS>MOLECULE
ZINC09545404
   55    58     0     0     0
SMALL
USER_CHARGES
N-(5,6-dimethylbenzothiazol-2-yl)-3-phenylsulfonyl-N-(2-pyridylmethyl)propanamide
@<TRIPOS>ATOM
      1 C1         -1.8199   -0.2668    0.1947 C.3       1 <0>        -0.1195
      2 C2         -0.4583    0.3784    0.1664 C.ar      1 <0>        -0.0715
      3 C3         -0.3656    1.7455    0.1331 C.ar      1 <0>        -0.0632
      4 C4          0.8957    2.3836    0.1060 C.ar      1 <0>         0.1010
      5 C5          2.0256    1.5336    0.1152 C.ar      1 <0>        -0.1491
      6 C6          1.9230    0.1657    0.1482 C.ar      1 <0>        -0.0597
      7 C7          0.6726   -0.4248    0.1742 C.ar      1 <0>        -0.0672
      8 C8          0.5401   -1.9256    0.2100 C.3       1 <0>        -0.1162
      9 S1          3.3711    2.6931    0.0745 S.3       1 <0>        -0.0029
     10 C9          2.3835    4.1825    0.0484 C.2       1 <0>         0.3747
     11 N1          1.1600    3.7076    0.0717 N.2       1 <0>        -0.5052
     12 N2          2.8026    5.5025    0.0130 N.am      1 <0>        -0.5067
     13 C10         4.2334    5.8164   -0.0085 C.3       1 <0>         0.1495
     14 C11         4.7631    5.8431    1.4021 C.ar      1 <0>         0.0864
     15 C12         5.3604    4.7133    1.9290 C.ar      1 <0>        -0.1477
     16 C13         5.8497    4.7503    3.2255 C.ar      1 <0>        -0.0703
     17 C14         5.7092    5.9239    3.9508 C.ar      1 <0>        -0.1583
     18 C15         5.0953    7.0115    3.3594 C.ar      1 <0>         0.1058
     19 N3          4.6467    6.9421    2.1212 N.ar      1 <0>        -0.4715
     20 C16         1.8940    6.4978   -0.0015 C.2       1 <0>         0.5260
     21 O1          0.7117    6.2385   -0.0747 O.2       1 <0>        -0.4577
     22 C17         2.3474    7.9331    0.0732 C.3       1 <0>        -0.1363
     23 C18         1.1258    8.8497    0.1648 C.3       1 <0>        -0.5981
     24 S2          1.6716   10.5773    0.2548 S.o2      1 <0>         2.4991
     25 O2          2.3364   10.8171    1.4876 O.2       1 <0>        -0.9268
     26 O3          2.2648   10.9679   -0.9760 O.2       1 <0>        -0.9313
     27 C19         0.1847   11.5173    0.3555 C.ar      1 <0>        -0.6604
     28 C20        -0.4302   11.9640   -0.7991 C.ar      1 <0>        -0.0239
     29 C21        -1.5994   12.6973   -0.7203 C.ar      1 <0>        -0.1395
     30 C22        -2.1482   12.9924    0.5136 C.ar      1 <0>        -0.0629
     31 C23        -1.5302   12.5506    1.6685 C.ar      1 <0>        -0.1397
     32 C24        -0.3639   11.8128    1.5895 C.ar      1 <0>        -0.0237
     33 H1         -2.1580   -0.4468   -0.8258 H         1 <0>         0.0756
     34 H2         -1.7619   -1.2142    0.7306 H         1 <0>         0.0755
     35 H3         -2.5246    0.3938    0.6998 H         1 <0>         0.0693
     36 H4         -1.2661    2.3418    0.1230 H         1 <0>         0.1336
     37 H5          2.8131   -0.4460    0.1535 H         1 <0>         0.1340
     38 H6          0.4984   -2.3111   -0.8087 H         1 <0>         0.0767
     39 H7          1.3995   -2.3540    0.7257 H         1 <0>         0.0699
     40 H8         -0.3735   -2.1971    0.7389 H         1 <0>         0.0763
     41 H9          4.7637    5.0557   -0.5814 H         1 <0>         0.1124
     42 H10         4.3846    6.7913   -0.4719 H         1 <0>         0.1267
     43 H11         5.4486    3.8146    1.3367 H         1 <0>         0.1374
     44 H12         6.3256    3.8845    3.6617 H         1 <0>         0.1402
     45 H13         6.0745    5.9869    4.9652 H         1 <0>         0.1409
     46 H14         4.9820    7.9291    3.9176 H         1 <0>         0.1650
     47 H15         2.9723    8.0712    0.9556 H         1 <0>         0.1364
     48 H16         2.9208    8.1800   -0.8203 H         1 <0>         0.1187
     49 H17         0.5009    8.7116   -0.7175 H         1 <0>         0.1457
     50 H18         0.5525    8.6028    1.0584 H         1 <0>         0.1440
     51 H19         0.0008   11.7368   -1.7630 H         1 <0>         0.1431
     52 H20        -2.0820   13.0428   -1.6225 H         1 <0>         0.1350
     53 H21        -3.0596   13.5685    0.5754 H         1 <0>         0.1326
     54 H22        -1.9588   12.7815    2.6326 H         1 <0>         0.1348
     55 H23         0.1189   11.4677    2.4918 H         1 <0>         0.1429
@<TRIPOS>BOND
     1    1    2 1
     2    1   33 1
     3    1   34 1
     4    1   35 1
     5    2    7 ar
     6    2    3 ar
     7    3    4 ar
     8    3   36 1
     9    4   11 1
    10    4    5 ar
    11    5    6 ar
    12    5    9 1
    13    6    7 ar
    14    6   37 1
    15    7    8 1
    16    8   38 1
    17    8   39 1
    18    8   40 1
    19    9   10 1
    20   10   11 2
    21   10   12 1
    22   12   13 1
    23   12   20 am
    24   13   14 1
    25   13   41 1
    26   13   42 1
    27   14   19 ar
    28   14   15 ar
    29   15   16 ar
    30   15   43 1
    31   16   17 ar
    32   16   44 1
    33   17   18 ar
    34   17   45 1
    35   18   19 ar
    36   18   46 1
    37   20   21 2
    38   20   22 1
    39   22   23 1
    40   22   47 1
    41   22   48 1
    42   23   24 1
    43   23   49 1
    44   23   50 1
    45   24   25 2
    46   24   26 2
    47   24   27 1
    48   27   32 ar
    49   27   28 ar
    50   28   29 ar
    51   28   51 1
    52   29   30 ar
    53   29   52 1
    54   30   31 ar
    55   30   53 1
    56   31   32 ar
    57   31   54 1
    58   32   55 1
@<TRIPOS>MOLECULE
ZINC12564670
   56    58     0     0     0
SMALL
USER_CHARGES
3-bromo-5-ethoxy-4-methoxy-N-methyl-N-[(4-morpholinophenyl)methyl]benzamide
@<TRIPOS>ATOM
      1 C1         -1.3752   -2.4044   -7.2823 C.3       1 <0>        -0.1525
      2 C2         -0.3981   -2.5888   -6.1195 C.3       1 <0>         0.0493
      3 O1          0.6735   -3.4412   -6.5284 O.3       1 <0>        -0.2970
      4 C3          1.6361   -3.7088   -5.6057 C.ar      1 <0>         0.1176
      5 C4          1.5494   -3.1638   -4.3391 C.ar      1 <0>        -0.1606
      6 C5          2.5401   -3.4402   -3.3933 C.ar      1 <0>        -0.0904
      7 C6          3.6170   -4.2623   -3.7340 C.ar      1 <0>        -0.0614
      8 C7          3.6948   -4.8079   -4.9978 C.ar      1 <0>        -0.0836
      9 C8          2.7100   -4.5325   -5.9380 C.ar      1 <0>         0.1143
     10 O2          2.7937   -5.0675   -7.1835 O.3       1 <0>        -0.3149
     11 C9          3.4921   -4.3064   -8.1709 C.3       1 <0>         0.0346
     12 Br1         5.1492   -5.9268   -5.4546 Br        1 <0>        -0.0136
     13 C10         2.4521   -2.8598   -2.0390 C.2       1 <0>         0.5643
     14 O3          3.4497   -2.4216   -1.4994 O.2       1 <0>        -0.5190
     15 N1          1.2661   -2.8156   -1.4005 N.am      1 <0>        -0.6040
     16 C11         0.0478   -3.2524   -2.0870 C.3       1 <0>         0.0692
     17 C12         1.1950   -2.3307   -0.0199 C.3       1 <0>         0.1591
     18 C13         0.9641   -0.8415   -0.0217 C.ar      1 <0>        -0.1364
     19 C14        -0.3259   -0.3434   -0.0191 C.ar      1 <0>        -0.0796
     20 C15        -0.5411    1.0207   -0.0208 C.ar      1 <0>        -0.1428
     21 C16         0.5401    1.8928   -0.0252 C.ar      1 <0>         0.1153
     22 C17         1.8347    1.3891   -0.0279 C.ar      1 <0>        -0.1718
     23 C18         2.0427    0.0238   -0.0266 C.ar      1 <0>        -0.0647
     24 N2          0.3261    3.2731   -0.0269 N.pl3     1 <0>        -0.4887
     25 C19        -0.5090    3.6753   -1.1680 C.3       1 <0>         0.0211
     26 C20        -0.7675    5.1827   -1.0981 C.3       1 <0>         0.0613
     27 O4          0.4836    5.8751   -1.0720 O.3       1 <0>        -0.3824
     28 C21         1.3220    5.5081    0.0269 C.3       1 <0>         0.0618
     29 C22         1.6017    4.0040   -0.0316 C.3       1 <0>         0.0122
     30 H1         -2.1926   -1.7543   -6.9704 H         1 <0>         0.0815
     31 H2         -0.8541   -1.9533   -8.1267 H         1 <0>         0.0680
     32 H3         -1.7751   -3.3743   -7.5782 H         1 <0>         0.0699
     33 H4         -0.9192   -3.0400   -5.2751 H         1 <0>         0.0649
     34 H5          0.0017   -1.6190   -5.8236 H         1 <0>         0.0631
     35 H6          0.7174   -2.5256   -4.0804 H         1 <0>         0.1494
     36 H7          4.3863   -4.4739   -3.0061 H         1 <0>         0.1493
     37 H8          3.0022   -3.3411   -8.2991 H         1 <0>         0.0500
     38 H9          4.5218   -4.1514   -7.8490 H         1 <0>         0.0504
     39 H10         3.4848   -4.8461   -9.1179 H         1 <0>         0.1013
     40 H11        -0.3535   -2.4272   -2.6752 H         1 <0>         0.0570
     41 H12         0.2821   -4.0882   -2.7463 H         1 <0>         0.0781
     42 H13        -0.6915   -3.5669   -1.3504 H         1 <0>         0.0799
     43 H14         2.1315   -2.5525    0.4918 H         1 <0>         0.0945
     44 H15         0.3726   -2.8253    0.4970 H         1 <0>         0.0900
     45 H16        -1.1661   -1.0220   -0.0153 H         1 <0>         0.1230
     46 H17        -1.5489    1.4091   -0.0231 H         1 <0>         0.1247
     47 H18         2.6775    2.0644   -0.0317 H         1 <0>         0.1267
     48 H19         3.0490   -0.3685   -0.0291 H         1 <0>         0.1303
     49 H20         0.0068    3.4373   -2.0983 H         1 <0>         0.0529
     50 H21        -1.4583    3.1411   -1.1305 H         1 <0>         0.0930
     51 H22        -1.3303    5.4138   -0.1937 H         1 <0>         0.0630
     52 H23        -1.3385    5.4956   -1.9721 H         1 <0>         0.1037
     53 H24         0.8199    5.7487    0.9640 H         1 <0>         0.0628
     54 H25         2.2625    6.0558   -0.0331 H         1 <0>         0.1042
     55 H26         2.1930    3.7097    0.8354 H         1 <0>         0.0948
     56 H27         2.1515    3.7706   -0.9434 H         1 <0>         0.0565
@<TRIPOS>BOND
     1    1    2 1
     2    1   30 1
     3    1   31 1
     4    1   32 1
     5    2    3 1
     6    2   33 1
     7    2   34 1
     8    3    4 1
     9    4    9 ar
    10    4    5 ar
    11    5    6 ar
    12    5   35 1
    13    6    7 ar
    14    6   13 1
    15    7    8 ar
    16    7   36 1
    17    8    9 ar
    18    8   12 1
    19    9   10 1
    20   10   11 1
    21   11   37 1
    22   11   38 1
    23   11   39 1
    24   13   14 2
    25   13   15 am
    26   15   16 1
    27   15   17 1
    28   16   40 1
    29   16   41 1
    30   16   42 1
    31   17   18 1
    32   17   43 1
    33   17   44 1
    34   18   23 ar
    35   18   19 ar
    36   19   20 ar
    37   19   45 1
    38   20   21 ar
    39   20   46 1
    40   21   22 ar
    41   21   24 1
    42   22   23 ar
    43   22   47 1
    44   23   48 1
    45   24   29 1
    46   24   25 1
    47   25   26 1
    48   25   49 1
    49   25   50 1
    50   26   27 1
    51   26   51 1
    52   26   52 1
    53   27   28 1
    54   28   29 1
    55   28   53 1
    56   28   54 1
    57   29   55 1
    58   29   56 1
@<TRIPOS>MOLECULE
ZINC23053504
   43    46     0     0     0
SMALL
USER_CHARGES
4-[2-(4-bromophenyl)sulfonylethylsulfanyl]-1-phenyl-pyrazolo[5,4-d]pyrimidine
@<TRIPOS>ATOM
      1 C1         -1.3011    6.4839    0.0523 C.ar      1 <0>        -0.1162
      2 C2         -0.1008    6.6023    0.7288 C.ar      1 <0>        -0.1028
      3 C3          0.8066    5.5611    0.7158 C.ar      1 <0>        -0.1094
      4 C4          0.5125    4.3944    0.0223 C.ar      1 <0>         0.1477
      5 C5         -0.6912    4.2809   -0.6608 C.ar      1 <0>        -0.1101
      6 C6         -1.5970    5.3232   -0.6388 C.ar      1 <0>        -0.0993
      7 N1          1.4305    3.3368    0.0071 N.pl3     1 <0>        -0.3266
      8 C7          1.1198    2.0067    0.0021 C.ar      1 <0>         0.3592
      9 C8          2.3437    1.3094   -0.0133 C.ar      1 <0>        -0.2630
     10 C9          3.3713    2.2771   -0.0172 C.2       1 <0>         0.1121
     11 N2          2.8257    3.4604   -0.0052 N.2       1 <0>        -0.2292
     12 C10         2.3089   -0.0990   -0.0205 C.ar      1 <0>         0.2407
     13 N3          1.1237   -0.7015   -0.0124 N.ar      1 <0>        -0.5523
     14 C11         0.0021   -0.0041    0.0020 C.ar      1 <0>         0.3653
     15 N4         -0.0158    1.3112    0.0093 N.ar      1 <0>        -0.5321
     16 S1          3.7993   -1.0387   -0.0393 S.3       1 <0>         0.0162
     17 C12         3.1145   -2.7141   -0.0413 C.3       1 <0>        -0.1120
     18 C13         4.2567   -3.7319   -0.0571 C.3       1 <0>        -0.6065
     19 S2          3.5704   -5.4111   -0.0591 S.o2      1 <0>         2.5053
     20 O1          2.9290   -5.6792    1.1803 O.2       1 <0>        -0.9218
     21 O2          2.9059   -5.6667   -1.2889 O.2       1 <0>        -0.9218
     22 C14         4.9752   -6.4744   -0.0777 C.ar      1 <0>        -0.6514
     23 C15         5.5114   -6.8900   -1.2822 C.ar      1 <0>        -0.0157
     24 C16         6.6163   -7.7203   -1.2972 C.ar      1 <0>        -0.1113
     25 C17         7.1792   -8.1439   -0.1068 C.ar      1 <0>        -0.0386
     26 C18         6.6391   -7.7320    1.0983 C.ar      1 <0>        -0.1113
     27 C19         5.5374   -6.8975    1.1123 C.ar      1 <0>        -0.0158
     28 Br1         8.6869   -9.2851   -0.1267 Br        1 <0>        -0.0295
     29 H1         -2.0090    7.2994    0.0641 H         1 <0>         0.1313
     30 H2          0.1274    7.5100    1.2677 H         1 <0>         0.1343
     31 H3          1.7436    5.6541    1.2446 H         1 <0>         0.1334
     32 H4         -0.9207    3.3767   -1.2051 H         1 <0>         0.1342
     33 H5         -2.5356    5.2335   -1.1656 H         1 <0>         0.1347
     34 H6          4.4315    2.0714   -0.0280 H         1 <0>         0.2083
     35 H7         -0.9383   -0.5351    0.0078 H         1 <0>         0.2127
     36 H8          2.5042   -2.8618    0.8619 H         1 <0>         0.1200
     37 H9          2.4874   -2.8528   -0.9343 H         1 <0>         0.1201
     38 H10         4.8670   -3.5841   -0.9603 H         1 <0>         0.1507
     39 H11         4.8838   -3.5932    0.8359 H         1 <0>         0.1506
     40 H12         5.0694   -6.5626   -2.2116 H         1 <0>         0.1538
     41 H13         7.0379   -8.0414   -2.2383 H         1 <0>         0.1463
     42 H14         7.0785   -8.0621    2.0280 H         1 <0>         0.1463
     43 H15         5.1159   -6.5756    2.0531 H         1 <0>         0.1537
@<TRIPOS>BOND
     1    1    6 ar
     2    1    2 ar
     3    1   29 1
     4    2    3 ar
     5    2   30 1
     6    3    4 ar
     7    3   31 1
     8    4    5 ar
     9    4    7 1
    10    5    6 ar
    11    5   32 1
    12    6   33 1
    13    7   11 1
    14    7    8 1
    15    8   15 ar
    16    8    9 ar
    17    9   10 1
    18    9   12 ar
    19   10   11 2
    20   10   34 1
    21   12   13 ar
    22   12   16 1
    23   13   14 ar
    24   14   15 ar
    25   14   35 1
    26   16   17 1
    27   17   18 1
    28   17   36 1
    29   17   37 1
    30   18   19 1
    31   18   38 1
    32   18   39 1
    33   19   20 2
    34   19   21 2
    35   19   22 1
    36   22   27 ar
    37   22   23 ar
    38   23   24 ar
    39   23   40 1
    40   24   25 ar
    41   24   41 1
    42   25   26 ar
    43   25   28 1
    44   26   27 ar
    45   26   42 1
    46   27   43 1
@<TRIPOS>MOLECULE
ZINC08596784
   59    62     0     0     0
SMALL
USER_CHARGES

@<TRIPOS>ATOM
      1 C1         -0.0187    1.5258    0.0104 C.3       1 <0>        -0.1543
      2 C2          0.0021   -0.0041    0.0020 C.3       1 <0>        -0.1211
      3 C3          0.7182   -0.4975   -1.2568 C.3       1 <0>        -0.1439
      4 C4          0.7390   -2.0273   -1.2652 C.3       1 <0>         0.0794
      5 N1          1.4247   -2.4998   -2.4705 N.pl3     1 <0>        -0.4798
      6 C5          0.7049   -2.7186   -3.5983 C.2       1 <0>         0.3058
      7 C6          1.2676   -3.1530   -4.7440 C.2       1 <0>        -0.8553
      8 C7          2.6601   -3.3990   -4.8032 C.2       1 <0>         0.4638
      9 O1          3.1874   -3.7925   -5.8312 O.2       1 <0>        -0.4719
     10 C8          3.4515   -3.1645   -3.5852 C.ar      1 <0>        -0.1534
     11 C9          2.7869   -2.7057   -2.4323 C.ar      1 <0>         0.1737
     12 C10         3.5143   -2.4734   -1.2721 C.ar      1 <0>        -0.1431
     13 C11         4.8826   -2.6903   -1.2652 C.ar      1 <0>         0.2211
     14 C12         5.5356   -3.1401   -2.4161 C.ar      1 <0>         0.0697
     15 C13         4.8308   -3.3838   -3.5606 C.ar      1 <0>        -0.0653
     16 F1          6.8706   -3.3463   -2.3932 F         1 <0>        -0.1262
     17 N2          5.6135   -2.4577   -0.1021 N.pl3     1 <0>        -0.6883
     18 C14         6.2385   -1.1819    0.2764 C.3       1 <0>         0.1324
     19 C15         6.9572   -1.4057    1.6236 C.3       1 <0>        -0.1304
     20 C16         7.1739   -2.9418    1.6509 C.3       1 <0>        -0.1330
     21 C17         5.8828   -3.4483    0.9560 C.3       1 <0>         0.1315
     22 S1          0.2671   -3.4156   -6.1704 S.o2      1 <0>         2.6141
     23 O2          0.6020   -4.7031   -6.6700 O.2       1 <0>        -0.9236
     24 O3         -1.0600   -3.0611   -5.8065 O.2       1 <0>        -0.9507
     25 C18         0.7827   -2.2527   -7.3896 C.ar      1 <0>        -0.6950
     26 C19         0.1891   -1.0053   -7.4482 C.ar      1 <0>         0.0148
     27 C20         0.5911   -0.0919   -8.4035 C.ar      1 <0>        -0.1759
     28 C21         1.5917   -0.4270   -9.3041 C.ar      1 <0>         0.1832
     29 C22         2.1861   -1.6791   -9.2430 C.ar      1 <0>        -0.2319
     30 C23         1.7840   -2.5870   -8.2825 C.ar      1 <0>         0.0388
     31 O4          1.9887    0.4696  -10.2451 O.3       1 <0>        -0.3114
     32 C24         3.0240    0.0563  -11.1392 C.3       1 <0>         0.0218
     33 H1          1.0039    1.9031    0.0027 H         1 <0>         0.0550
     34 H2         -0.5459    1.8868   -0.8726 H         1 <0>         0.0569
     35 H3         -0.5289    1.8773    0.9072 H         1 <0>         0.0594
     36 H4          0.5293   -0.3651    0.8851 H         1 <0>         0.0663
     37 H5         -1.0205   -0.3814    0.0098 H         1 <0>         0.0694
     38 H6          0.1910   -0.1364   -2.1398 H         1 <0>         0.0769
     39 H7          1.7408   -0.1202   -1.2645 H         1 <0>         0.0745
     40 H8          1.2661   -2.3884   -0.3821 H         1 <0>         0.1039
     41 H9         -0.2836   -2.4046   -1.2575 H         1 <0>         0.1077
     42 H10        -0.3597   -2.5384   -3.5782 H         1 <0>         0.1883
     43 H11         3.0157   -2.1251   -0.3796 H         1 <0>         0.1488
     44 H12         5.3400   -3.7327   -4.4467 H         1 <0>         0.1583
     45 H13         6.9603   -0.8828   -0.4836 H         1 <0>         0.0523
     46 H14         5.4739   -0.4130    0.3875 H         1 <0>         0.0518
     47 H15         7.9125   -0.8810    1.6429 H         1 <0>         0.0803
     48 H16         6.3261   -1.0904    2.4545 H         1 <0>         0.0747
     49 H17         8.0620   -3.2212    1.0841 H         1 <0>         0.0760
     50 H18         7.2344   -3.3097    2.6752 H         1 <0>         0.0817
     51 H19         5.0554   -3.4806    1.6649 H         1 <0>         0.0541
     52 H20         6.0486   -4.4334    0.5200 H         1 <0>         0.0622
     53 H21        -0.5898   -0.7450   -6.7469 H         1 <0>         0.1470
     54 H22         0.1267    0.8820   -8.4493 H         1 <0>         0.1411
     55 H23         2.9652   -1.9423   -9.9430 H         1 <0>         0.1389
     56 H24         2.2494   -3.5603   -8.2317 H         1 <0>         0.1513
     57 H25         2.6961   -0.8235  -11.6929 H         1 <0>         0.0615
     58 H26         3.2448    0.8636  -11.8374 H         1 <0>         0.1054
     59 H27         3.9208   -0.1866  -10.5692 H         1 <0>         0.0607
@<TRIPOS>BOND
     1    1    2 1
     2    1   33 1
     3    1   34 1
     4    1   35 1
     5    2    3 1
     6    2   36 1
     7    2   37 1
     8    3    4 1
     9    3   38 1
    10    3   39 1
    11    4    5 1
    12    4   40 1
    13    4   41 1
    14    5   11 1
    15    5    6 1
    16    6    7 2
    17    6   42 1
    18    7    8 1
    19    7   22 1
    20    8    9 2
    21    8   10 1
    22   10   15 ar
    23   10   11 ar
    24   11   12 ar
    25   12   13 ar
    26   12   43 1
    27   13   14 ar
    28   13   17 1
    29   14   15 ar
    30   14   16 1
    31   15   44 1
    32   17   21 1
    33   17   18 1
    34   18   19 1
    35   18   45 1
    36   18   46 1
    37   19   20 1
    38   19   47 1
    39   19   48 1
    40   20   21 1
    41   20   49 1
    42   20   50 1
    43   21   51 1
    44   21   52 1
    45   22   23 2
    46   22   24 2
    47   22   25 1
    48   25   30 ar
    49   25   26 ar
    50   26   27 ar
    51   26   53 1
    52   27   28 ar
    53   27   54 1
    54   28   29 ar
    55   28   31 1
    56   29   30 ar
    57   29   55 1
    58   30   56 1
    59   31   32 1
    60   32   57 1
    61   32   58 1
    62   32   59 1
@<TRIPOS>MOLECULE
ZINC39737368
   56    59     0     0     0
SMALL
USER_CHARGES

@<TRIPOS>ATOM
      1 C1         -0.0178    1.4648    0.0101 C.3       1 <0>         0.0189
      2 N1          0.0021   -0.0041    0.0020 N.3       1 <0>        -0.5241
      3 C2          0.7062   -0.5275    1.1802 C.3       1 <0>         0.0617
      4 C3          2.1851   -0.1430    1.1032 C.3       1 <0>        -0.0724
      5 C4          2.9074   -0.6800    2.3119 C.ar      1 <0>        -0.0779
      6 C5          2.9997    0.0880    3.4578 C.ar      1 <0>        -0.1125
      7 C6          3.6612   -0.4001    4.5692 C.ar      1 <0>        -0.1702
      8 C7          4.2332   -1.6618    4.5364 C.ar      1 <0>         0.0950
      9 C8          4.1399   -2.4349    3.3832 C.ar      1 <0>         0.1013
     10 C9          3.4713   -1.9416    2.2743 C.ar      1 <0>        -0.1668
     11 O1          4.6997   -3.6737    3.3461 O.3       1 <0>        -0.3071
     12 C10         4.5646   -4.4105    2.1292 C.3       1 <0>         0.0259
     13 O2          4.8847   -2.1432    5.6287 O.3       1 <0>        -0.3076
     14 C11         4.9414   -1.2942    6.7768 C.3       1 <0>         0.0262
     15 C12        -1.3597   -0.5486   -0.0825 C.3       1 <0>         0.1124
     16 C13        -1.9618   -0.1908   -1.4168 C.2       1 <0>         0.4398
     17 N2         -1.2369    0.5032   -2.2615 N.2       1 <0>        -0.5725
     18 C14        -1.6847    0.8668   -3.4676 C.2       1 <0>         0.5424
     19 O3         -0.9840    1.5125   -4.2304 O.2       1 <0>        -0.4385
     20 C15        -3.0665    0.4587   -3.8526 C.2       1 <0>        -0.2989
     21 C16        -3.7367    0.7131   -5.0257 C.2       1 <0>         0.1076
     22 C17        -5.1432    0.1731   -5.1459 C.3       1 <0>        -0.1007
     23 S1         -5.3675   -0.6647   -3.5258 S.3       1 <0>         0.0238
     24 C18        -3.7764   -0.3138   -2.8230 C.2       1 <0>         0.2746
     25 N3         -3.1927   -0.5970   -1.6796 N.2       1 <0>        -0.5329
     26 C19        -3.1163    1.4730   -6.1092 C.ar      1 <0>        -0.0987
     27 C20        -2.7802    2.8232   -5.9220 C.ar      1 <0>        -0.0275
     28 C21        -2.1980    3.5287   -6.9435 C.ar      1 <0>        -0.1498
     29 C22        -1.9408    2.9114   -8.1604 C.ar      1 <0>         0.1257
     30 C23        -2.2700    1.5765   -8.3538 C.ar      1 <0>        -0.1547
     31 C24        -2.8478    0.8551   -7.3410 C.ar      1 <0>        -0.0551
     32 F1         -1.3673    3.6138   -9.1618 F         1 <0>        -0.1319
     33 H1          1.0047    1.8421    0.0024 H         1 <0>         0.0720
     34 H2         -0.5450    1.8259   -0.8730 H         1 <0>         0.0870
     35 H3         -0.5280    1.8163    0.9069 H         1 <0>         0.0189
     36 H4          0.2673   -0.1040    2.0837 H         1 <0>         0.0391
     37 H5          0.6139   -1.6133    1.2060 H         1 <0>         0.0772
     38 H6          2.6240   -0.5665    0.1998 H         1 <0>         0.0824
     39 H7          2.2773    0.9428    1.0774 H         1 <0>         0.0760
     40 H8          2.5543    1.0715    3.4846 H         1 <0>         0.1257
     41 H9          3.7325    0.2021    5.4629 H         1 <0>         0.1347
     42 H10         3.3942   -2.5411    1.3793 H         1 <0>         0.1360
     43 H11         3.5073   -4.5602    1.9105 H         1 <0>         0.0551
     44 H12         5.0290   -3.8548    1.3145 H         1 <0>         0.0554
     45 H13         5.0545   -5.3785    2.2342 H         1 <0>         0.1007
     46 H14         5.4876   -1.7978    7.5745 H         1 <0>         0.1007
     47 H15         5.4506   -0.3660    6.5176 H         1 <0>         0.0547
     48 H16         3.9292   -1.0713    7.1142 H         1 <0>         0.0545
     49 H17        -1.3244   -1.6331    0.0212 H         1 <0>         0.1156
     50 H18        -1.9698   -0.1268    0.7163 H         1 <0>         0.0767
     51 H19        -5.8623    0.9831   -5.2685 H         1 <0>         0.1622
     52 H20        -5.2180   -0.5399   -5.9669 H         1 <0>         0.1607
     53 H21        -2.9800    3.3049   -4.9763 H         1 <0>         0.1325
     54 H22        -1.9392    4.5675   -6.8013 H         1 <0>         0.1438
     55 H23        -2.0665    1.1039   -9.3034 H         1 <0>         0.1445
     56 H24        -3.0995   -0.1843   -7.4917 H         1 <0>         0.1385
@<TRIPOS>BOND
     1    1    2 1
     2    1   33 1
     3    1   34 1
     4    1   35 1
     5    2    3 1
     6    2   15 1
     7    3    4 1
     8    3   36 1
     9    3   37 1
    10    4    5 1
    11    4   38 1
    12    4   39 1
    13    5   10 ar
    14    5    6 ar
    15    6    7 ar
    16    6   40 1
    17    7    8 ar
    18    7   41 1
    19    8    9 ar
    20    8   13 1
    21    9   10 ar
    22    9   11 1
    23   10   42 1
    24   11   12 1
    25   12   43 1
    26   12   44 1
    27   12   45 1
    28   13   14 1
    29   14   46 1
    30   14   47 1
    31   14   48 1
    32   15   16 1
    33   15   49 1
    34   15   50 1
    35   16   25 1
    36   16   17 2
    37   17   18 1
    38   18   19 2
    39   18   20 1
    40   20   24 1
    41   20   21 2
    42   21   22 1
    43   21   26 1
    44   22   23 1
    45   22   51 1
    46   22   52 1
    47   23   24 1
    48   24   25 2
    49   26   31 ar
    50   26   27 ar
    51   27   28 ar
    52   27   53 1
    53   28   29 ar
    54   28   54 1
    55   29   30 ar
    56   29   32 1
    57   30   31 ar
    58   30   55 1
    59   31   56 1
@<TRIPOS>MOLECULE
ZINC14533405
   56    59     0     0     0
SMALL
USER_CHARGES
2-ethyl-4-phenethyl-8-(3-thienylmethyl)-2,4,8-triazaspiro[4.5]decane-1,3-dione
@<TRIPOS>ATOM
      1 C1         -5.3424    8.2798   -6.6244 C.3       1 <0>        -0.1712
      2 C2         -3.8731    7.8620   -6.5364 C.3       1 <0>         0.1108
      3 N1         -3.5828    7.3796   -5.1840 N.am      1 <0>        -0.5707
      4 C3         -3.7085    6.0939   -4.7941 C.2       1 <0>         0.5343
      5 O1         -4.0698    5.1540   -5.4693 O.2       1 <0>        -0.4437
      6 C4         -3.3049    6.0731   -3.3384 C.3       1 <0>         0.1102
      7 C5         -4.4678    5.6068   -2.4681 C.3       1 <0>        -0.1403
      8 C6         -4.0216    5.5704   -1.0036 C.3       1 <0>        -0.0196
      9 C7         -1.7216    5.1505   -1.6473 C.3       1 <0>        -0.0236
     10 C8         -2.0905    5.1729   -3.1335 C.3       1 <0>        -0.1382
     11 C9         -2.5060    4.4932    0.5466 C.3       1 <0>         0.0614
     12 C10        -1.4904    3.3865    0.6686 C.2       1 <0>        -0.1878
     13 C11        -1.8974    2.0774    0.8459 C.2       1 <0>        -0.1681
     14 C12        -0.9582    1.1064    0.9569 C.2       1 <0>        -0.1513
     15 S1          0.5565    2.0377    0.7971 S.3       1 <0>         0.1276
     16 C13        -0.1644    3.6591    0.6004 C.2       1 <0>        -0.1598
     17 N2         -2.9665    7.4702   -3.0407 N.am      1 <0>        -0.6252
     18 C14        -3.1598    8.1596   -4.1815 C.2       1 <0>         0.7016
     19 O2         -2.9718    9.3556   -4.2887 O.2       1 <0>        -0.5106
     20 C15        -2.5091    8.0081   -1.7570 C.3       1 <0>         0.1389
     21 C16        -3.5736    8.9497   -1.1903 C.3       1 <0>        -0.1055
     22 C17        -3.1211    9.4712    0.1493 C.ar      1 <0>        -0.0959
     23 C18        -3.4501    8.7870    1.3044 C.ar      1 <0>        -0.1268
     24 C19        -3.0305    9.2625    2.5327 C.ar      1 <0>        -0.1159
     25 C20        -2.2912   10.4282    2.6067 C.ar      1 <0>        -0.1126
     26 C21        -1.9670   11.1155    1.4520 C.ar      1 <0>        -0.1094
     27 C22        -2.3817   10.6369    0.2233 C.ar      1 <0>        -0.1075
     28 H1         -5.9778    7.4231   -6.4001 H         1 <0>         0.0608
     29 H2         -5.5376    9.0753   -5.9052 H         1 <0>         0.0643
     30 H3         -5.5584    8.6388   -7.6307 H         1 <0>         0.0853
     31 H4         -3.2377    8.7188   -6.7608 H         1 <0>         0.1033
     32 H5         -3.6779    7.0666   -7.2556 H         1 <0>         0.1007
     33 H6         -4.7777    4.6091   -2.7790 H         1 <0>         0.1178
     34 H7         -5.3039    6.2978   -2.5766 H         1 <0>         0.1247
     35 H8         -4.8412    5.2081   -0.3829 H         1 <0>         0.1446
     36 H9         -3.7401    6.5739   -0.6843 H         1 <0>         0.1410
     37 H10        -1.4562    6.1569   -1.3236 H         1 <0>         0.1435
     38 H11        -0.8731    4.4837   -1.4935 H         1 <0>         0.1422
     39 H12        -2.3272    4.1618   -3.4649 H         1 <0>         0.1168
     40 H13        -1.2506    5.5579   -3.7116 H         1 <0>         0.1243
     41 H14        -3.3959    4.2346    1.1204 H         1 <0>         0.1391
     42 H15        -2.0815    5.4200    0.9324 H         1 <0>         0.1376
     43 H16        -2.9479    1.8323    0.8980 H         1 <0>         0.1434
     44 H17        -1.0916    0.0443    1.1002 H         1 <0>         0.1974
     45 H18         0.3282    4.6103    0.4625 H         1 <0>         0.1955
     46 H19        -2.3404    7.1882   -1.0589 H         1 <0>         0.0859
     47 H20        -1.5792    8.5574   -1.9039 H         1 <0>         0.0976
     48 H21        -3.7211    9.7853   -1.8745 H         1 <0>         0.0979
     49 H22        -4.5118    8.4077   -1.0711 H         1 <0>         0.0771
     50 H23        -4.0316    7.8786    1.2470 H         1 <0>         0.1137
     51 H24        -3.2836    8.7253    3.4349 H         1 <0>         0.1249
     52 H25        -1.9665   10.8017    3.5667 H         1 <0>         0.1269
     53 H26        -1.3893   12.0262    1.5098 H         1 <0>         0.1282
     54 H27        -2.1284   11.1739   -0.6789 H         1 <0>         0.1267
     55 N3         -2.8767    4.6433   -0.8755 N.4       1 <0>        -0.3931
     56 H28        -3.1485    3.7257   -1.2477 H         1 <0>         0.4304
@<TRIPOS>BOND
     1    1    2 1
     2    1   28 1
     3    1   29 1
     4    1   30 1
     5    2    3 1
     6    2   31 1
     7    2   32 1
     8    3   18 am
     9    3    4 am
    10    4    5 2
    11    4    6 1
    12    6   10 1
    13    6    7 1
    14    6   17 1
    15    7    8 1
    16    7   33 1
    17    7   34 1
    18    8   35 1
    19    8   36 1
    20    8   55 1
    21    9   10 1
    22    9   37 1
    23    9   38 1
    24    9   55 1
    25   10   39 1
    26   10   40 1
    27   11   12 1
    28   11   41 1
    29   11   42 1
    30   11   55 1
    31   12   16 2
    32   12   13 1
    33   13   14 2
    34   13   43 1
    35   14   15 1
    36   14   44 1
    37   15   16 1
    38   16   45 1
    39   17   18 am
    40   17   20 1
    41   18   19 2
    42   20   21 1
    43   20   46 1
    44   20   47 1
    45   21   22 1
    46   21   48 1
    47   21   49 1
    48   22   27 ar
    49   22   23 ar
    50   23   24 ar
    51   23   50 1
    52   24   25 ar
    53   24   51 1
    54   25   26 ar
    55   25   52 1
    56   26   27 ar
    57   26   53 1
    58   27   54 1
    59   55   56 1
@<TRIPOS>MOLECULE
ZINC22799671
   48    52     0     0     0
SMALL
USER_CHARGES
2-[[4-[[2-(2-thienyl)oxazol-4-yl]methyl]piperazin-1-yl]methyl]-1,3-benzothiazole
@<TRIPOS>ATOM
      1 C1         -8.7989    1.3383   -3.9157 C.ar      1 <0>        -0.1087
      2 C2         -8.8781    0.1034   -4.5446 C.ar      1 <0>        -0.0795
      3 C3         -7.7337   -0.4651   -5.0712 C.ar      1 <0>        -0.0699
      4 C4         -6.5381    0.2027   -4.9625 C.ar      1 <0>        -0.1462
      5 C5         -6.4274    1.4607   -4.3274 C.ar      1 <0>         0.0640
      6 C6         -7.6197    2.0072   -3.8027 C.ar      1 <0>        -0.0548
      7 N1         -5.1785    1.9713   -4.3111 N.2       1 <0>        -0.4949
      8 C7         -4.1615    1.3506   -4.8394 C.2       1 <0>         0.1033
      9 S1         -4.8649   -0.1073   -5.4677 S.3       1 <0>         0.0652
     10 C8         -2.7225    1.7944   -4.8969 C.3       1 <0>         0.1441
     11 N2         -2.0121    1.3078   -3.7068 N.3       1 <0>        -0.5327
     12 C9         -0.6771    1.9138   -3.6059 C.3       1 <0>         0.0252
     13 C10         0.0588    1.3229   -2.4010 C.3       1 <0>         0.0030
     14 N3         -0.7232    1.5724   -1.1821 N.4       1 <0>        -0.4032
     15 C11        -2.0582    0.9664   -1.2830 C.3       1 <0>        -0.0019
     16 C12        -2.7940    1.5574   -2.4879 C.3       1 <0>         0.0248
     17 C13        -0.0127    1.0858    0.0080 C.3       1 <0>         0.0937
     18 C14        -0.7181    1.5718    1.2479 C.2       1 <0>        -0.0778
     19 C15        -1.6414    0.8924    1.9509 C.2       1 <0>        -0.0151
     20 O1         -2.0172    1.6756    2.9830 O.3       1 <0>        -0.1752
     21 C16        -1.3268    2.8269    2.8948 C.2       1 <0>         0.3258
     22 N4         -0.5403    2.7618    1.8427 N.2       1 <0>        -0.4679
     23 C17        -1.4339    3.9658    3.8183 C.2       1 <0>        -0.1590
     24 C18        -2.2361    4.1101    4.9352 C.2       1 <0>        -0.0808
     25 C19        -2.1558    5.2814    5.6517 C.2       1 <0>        -0.1727
     26 C20        -1.3064    6.2574    5.2372 C.2       1 <0>        -0.1410
     27 S2         -0.5676    5.5267    3.7858 S.3       1 <0>         0.1604
     28 H1         -9.6956    1.7789   -3.5056 H         1 <0>         0.1396
     29 H2         -9.8259   -0.4086   -4.6220 H         1 <0>         0.1449
     30 H3         -7.7788   -1.4255   -5.5631 H         1 <0>         0.1390
     31 H4         -7.5949    2.9664   -3.3069 H         1 <0>         0.1340
     32 H5         -2.2481    1.3840   -5.8005 H         1 <0>         0.1227
     33 H6         -2.6785    2.8931   -4.9265 H         1 <0>         0.0858
     34 H7         -0.1084    1.7029   -4.5236 H         1 <0>         0.1316
     35 H8         -0.7770    3.0018   -3.4783 H         1 <0>         0.0676
     36 H9          0.1831    0.2392   -2.5427 H         1 <0>         0.1401
     37 H10         1.0473    1.7961   -2.3069 H         1 <0>         0.1423
     38 H11        -1.9583   -0.1216   -1.4107 H         1 <0>         0.1389
     39 H12        -2.6269    1.1772   -0.3653 H         1 <0>         0.1288
     40 H13        -2.9181    2.6413   -2.3474 H         1 <0>         0.0683
     41 H14        -3.7826    1.0845   -2.5831 H         1 <0>         0.1208
     42 H15         0.0022   -0.0141    0.0019 H         1 <0>         0.1462
     43 H16         1.0193    1.4665    0.0002 H         1 <0>         0.1510
     44 H17        -2.0116   -0.0981    1.7313 H         1 <0>         0.2287
     45 H18        -2.9074    3.3206    5.2395 H         1 <0>         0.1453
     46 H19        -2.7649    5.4256    6.5318 H         1 <0>         0.1505
     47 H20        -1.1248    7.2282    5.6742 H         1 <0>         0.2011
     48 H21        -0.8508    2.6599   -1.0770 H         1 <0>         0.4445
@<TRIPOS>BOND
     1    1    6 ar
     2    1    2 ar
     3    1   28 1
     4    2    3 ar
     5    2   29 1
     6    3    4 ar
     7    3   30 1
     8    4    9 1
     9    4    5 ar
    10    5    6 ar
    11    5    7 1
    12    6   31 1
    13    7    8 2
    14    8    9 1
    15    8   10 1
    16   10   11 1
    17   10   32 1
    18   10   33 1
    19   11   16 1
    20   11   12 1
    21   12   13 1
    22   12   34 1
    23   12   35 1
    24   13   14 1
    25   13   36 1
    26   13   37 1
    27   14   15 1
    28   14   17 1
    29   14   48 1
    30   15   16 1
    31   15   38 1
    32   15   39 1
    33   16   40 1
    34   16   41 1
    35   17   18 1
    36   17   42 1
    37   17   43 1
    38   18   22 1
    39   18   19 2
    40   19   20 1
    41   19   44 1
    42   20   21 1
    43   21   22 2
    44   21   23 1
    45   23   27 1
    46   23   24 2
    47   24   25 1
    48   24   45 1
    49   25   26 2
    50   25   46 1
    51   26   27 1
    52   26   47 1
@<TRIPOS>MOLECULE
ZINC35886497
   60    64     0     0     0
SMALL
USER_CHARGES

@<TRIPOS>ATOM
      1 C1          0.4241    1.3056   -1.4263 C.3       1 <0>         0.0236
      2 O1          0.3220   -0.0507   -0.9882 O.3       1 <0>        -0.3146
      3 C2         -0.9163   -0.4991   -0.6527 C.ar      1 <0>         0.1417
      4 C3         -2.0116    0.3473   -0.7489 C.ar      1 <0>        -0.2002
      5 C4         -3.2691   -0.1111   -0.4079 C.ar      1 <0>        -0.0668
      6 C5         -3.4371   -1.4123    0.0292 C.ar      1 <0>        -0.1502
      7 C6         -2.3473   -2.2574    0.1263 C.ar      1 <0>        -0.0930
      8 C7         -1.0882   -1.8055   -0.2191 C.ar      1 <0>        -0.1350
      9 C8          0.0983   -2.7291   -0.1189 C.3       1 <0>        -0.0359
     10 H1          1.0240   -2.1735   -0.2690 H         1 <0>         0.1140
     11 C9          0.1134   -3.4366    1.2532 C.3       1 <0>         0.0999
     12 N1          0.5949   -4.8070    0.9620 N.am      1 <0>        -0.6193
     13 C10        -0.0657   -5.1640   -0.3151 C.3       1 <0>         0.0938
     14 C11        -0.0184   -3.8665   -1.1549 C.3       1 <0>        -0.1234
     15 H2          0.8508   -3.8706   -1.8126 H         1 <0>         0.1123
     16 C12        -1.3035   -3.7129   -1.9708 C.3       1 <0>        -0.0041
     17 N2         -1.2994   -4.6792   -3.0773 N.4       1 <0>        -0.3839
     18 C13        -2.4386   -4.4117   -3.9685 C.3       1 <0>        -0.0019
     19 C14        -2.2475   -5.2115   -5.2578 C.3       1 <0>        -0.1048
     20 C15        -1.9617   -6.6538   -4.9256 C.ar      1 <0>        -0.0915
     21 C16        -2.0975   -7.6056   -5.9242 C.ar      1 <0>        -0.1052
     22 C17        -1.8414   -8.9359   -5.6579 C.ar      1 <0>        -0.0925
     23 C18        -1.4473   -9.3199   -4.3895 C.ar      1 <0>        -0.1043
     24 C19        -1.3133   -8.3729   -3.3944 C.ar      1 <0>        -0.0925
     25 C20        -1.5718   -7.0362   -3.6597 C.ar      1 <0>        -0.1317
     26 C21        -1.4210   -6.0382   -2.5421 C.3       1 <0>         0.0259
     27 C22         1.4418   -5.5586    1.6931 C.2       1 <0>         0.6338
     28 O2          1.7438   -6.6757    1.3165 O.2       1 <0>        -0.5104
     29 C23         1.9994   -5.0301    2.9423 C.2       1 <0>        -0.0964
     30 C24         2.8678   -5.6801    3.7716 C.2       1 <0>        -0.1012
     31 C25         3.1359   -4.8084    4.8386 C.2       1 <0>        -0.2225
     32 C26         2.4283   -3.6788    4.6166 C.2       1 <0>         0.0045
     33 O3          1.7487   -3.8142    3.4705 O.3       1 <0>        -0.1658
     34 H3          1.4635    1.5341   -1.6619 H         1 <0>         0.1069
     35 H4         -0.1896    1.4473   -2.3159 H         1 <0>         0.0590
     36 H5          0.0763    1.9701   -0.6354 H         1 <0>         0.0616
     37 H6         -1.8808    1.3637   -1.0899 H         1 <0>         0.1350
     38 H7         -4.1219    0.5475   -0.4822 H         1 <0>         0.1318
     39 H8         -4.4212   -1.7687    0.2954 H         1 <0>         0.1304
     40 H9         -2.4811   -3.2731    0.4682 H         1 <0>         0.1301
     41 H10         0.7973   -2.9302    1.9344 H         1 <0>         0.1054
     42 H11        -0.8909   -3.4683    1.6755 H         1 <0>         0.0859
     43 H12         0.4830   -5.9608   -0.8171 H         1 <0>         0.0996
     44 H13        -1.0980   -5.4655   -0.1377 H         1 <0>         0.0831
     45 H14        -2.1653   -3.8983   -1.3297 H         1 <0>         0.1397
     46 H15        -1.3603   -2.7011   -2.3723 H         1 <0>         0.1416
     47 H16        -3.3642   -4.7184   -3.4814 H         1 <0>         0.1329
     48 H17        -2.4795   -3.3475   -4.2008 H         1 <0>         0.1363
     49 H18        -3.1543   -5.1510   -5.8596 H         1 <0>         0.1232
     50 H19        -1.4115   -4.7969   -5.8211 H         1 <0>         0.1030
     51 H20        -2.4054   -7.3053   -6.9148 H         1 <0>         0.1344
     52 H21        -1.9488   -9.6746   -6.4384 H         1 <0>         0.1363
     53 H22        -1.2451  -10.3595   -4.1776 H         1 <0>         0.1372
     54 H23        -1.0057   -8.6742   -2.4040 H         1 <0>         0.1347
     55 H24        -0.5284   -6.2780   -1.9642 H         1 <0>         0.1461
     56 H25        -2.2943   -6.0917   -1.8921 H         1 <0>         0.1378
     57 H26         3.2704   -6.6727    3.6333 H         1 <0>         0.1632
     58 H27         3.7853   -5.0039    5.6791 H         1 <0>         0.1623
     59 H28         2.4155   -2.8087    5.2563 H         1 <0>         0.2149
     60 H29        -0.4373   -4.5960   -3.5950 H         1 <0>         0.4252
@<TRIPOS>BOND
     1    1    2 1
     2    1   34 1
     3    1   35 1
     4    1   36 1
     5    2    3 1
     6    3    8 ar
     7    3    4 ar
     8    4    5 ar
     9    4   37 1
    10    5    6 ar
    11    5   38 1
    12    6    7 ar
    13    6   39 1
    14    7    8 ar
    15    7   40 1
    16    8    9 1
    17    9   10 1
    18    9   14 1
    19    9   11 1
    20   11   12 1
    21   11   41 1
    22   11   42 1
    23   12   13 1
    24   12   27 am
    25   13   14 1
    26   13   43 1
    27   13   44 1
    28   14   15 1
    29   14   16 1
    30   16   17 1
    31   16   45 1
    32   16   46 1
    33   17   26 1
    34   17   18 1
    35   17   60 1
    36   18   19 1
    37   18   47 1
    38   18   48 1
    39   19   20 1
    40   19   49 1
    41   19   50 1
    42   20   25 ar
    43   20   21 ar
    44   21   22 ar
    45   21   51 1
    46   22   23 ar
    47   22   52 1
    48   23   24 ar
    49   23   53 1
    50   24   25 ar
    51   24   54 1
    52   25   26 1
    53   26   55 1
    54   26   56 1
    55   27   28 2
    56   27   29 1
    57   29   33 1
    58   29   30 2
    59   30   31 1
    60   30   57 1
    61   31   32 2
    62   31   58 1
    63   32   33 1
    64   32   59 1
@<TRIPOS>MOLECULE
ZINC45545773
   50    53     0     0     0
SMALL
USER_CHARGES

@<TRIPOS>ATOM
      1 C1         -0.0184    1.5028    0.0103 C.3       1 <0>        -0.0976
      2 C2          0.0021   -0.0041    0.0020 C.2       1 <0>         0.0384
      3 C3          0.0077   -0.7847   -1.0919 C.2       1 <0>         0.0582
      4 N1          0.0283   -2.0898   -0.6538 N.pl3     1 <0>        -0.3884
      5 C4          0.0344   -2.0527    0.7068 C.cat     1 <0>         0.2758
      6 N2          0.0236   -0.7963    1.0870 N.pl3     1 <0>        -0.4932
      7 S1          0.0593   -3.4530    1.7760 S.3       1 <0>         0.1097
      8 C5          0.0573   -2.7337    3.4413 C.3       1 <0>        -0.0547
      9 C6          0.0779   -3.8387    4.4658 C.2       1 <0>        -0.0230
     10 C7         -0.9985   -4.4385    5.0058 C.2       1 <0>        -0.0164
     11 O1         -0.5467   -5.3665    5.8727 O.3       1 <0>        -0.1815
     12 C8          0.7968   -5.3240    5.8533 C.2       1 <0>         0.2642
     13 N3          1.1729   -4.4031    4.9974 N.2       1 <0>        -0.4588
     14 C9          1.6990   -6.1759    6.6565 C.ar      1 <0>        -0.0338
     15 C10         3.0827   -6.0279    6.5486 C.ar      1 <0>        -0.0523
     16 C11         3.9195   -6.8254    7.3010 C.ar      1 <0>        -0.1118
     17 C12         3.3894   -7.7715    8.1621 C.ar      1 <0>        -0.0093
     18 C13         2.0174   -7.9233    8.2730 C.ar      1 <0>        -0.1101
     19 C14         1.1704   -7.1276    7.5301 C.ar      1 <0>        -0.0692
     20 Cl1         4.4490   -8.7717    9.1058 Cl        1 <0>        -0.0483
     21 C15         0.0407   -3.2906   -1.4929 C.3       1 <0>         0.0797
     22 C16         1.4874   -3.6884   -1.7925 C.3       1 <0>         0.0612
     23 H1          2.0213   -2.8425   -2.2254 H         1 <0>         0.0964
     24 C17         1.5103   -4.8799   -2.7740 C.3       1 <0>        -0.1478
     25 C18         2.6778   -5.7411   -2.2197 C.3       1 <0>        -0.1558
     26 C19         2.5368   -5.4834   -0.6983 C.3       1 <0>         0.0482
     27 O2          2.1362   -4.1066   -0.5860 O.3       1 <0>        -0.3710
     28 C20        -0.0062   -0.3200   -2.5254 C.3       1 <0>        -0.0961
     29 H2          1.0042    1.8801    0.0026 H         1 <0>         0.1003
     30 H3         -0.5455    1.8639   -0.8728 H         1 <0>         0.1058
     31 H4         -0.5286    1.8543    0.9071 H         1 <0>         0.0890
     32 H5          0.9392   -2.1054    3.5668 H         1 <0>         0.1250
     33 H6         -0.8406   -2.1305    3.5755 H         1 <0>         0.1217
     34 H7         -2.0324   -4.2172    4.7860 H         1 <0>         0.2274
     35 H8          3.4973   -5.2906    5.8771 H         1 <0>         0.1478
     36 H9          4.9904   -6.7120    7.2181 H         1 <0>         0.1474
     37 H10         1.6097   -8.6631    8.9460 H         1 <0>         0.1472
     38 H11         0.1005   -7.2436    7.6210 H         1 <0>         0.1433
     39 H12        -0.4590   -4.1053   -0.9688 H         1 <0>         0.1205
     40 H13        -0.4809   -3.0859   -2.4278 H         1 <0>         0.1346
     41 H14         0.5705   -5.4309   -2.7373 H         1 <0>         0.0867
     42 H15         1.7244   -4.5430   -3.7882 H         1 <0>         0.0963
     43 H16         2.5339   -6.7958   -2.4545 H         1 <0>         0.0942
     44 H17         3.6390   -5.3855   -2.5909 H         1 <0>         0.0858
     45 H18         1.7742   -6.1360   -0.2732 H         1 <0>         0.0671
     46 H19         3.4922   -5.6407   -0.1978 H         1 <0>         0.0957
     47 H20         1.0179   -0.1935   -2.8763 H         1 <0>         0.1014
     48 H21        -0.5130   -1.0616   -3.1428 H         1 <0>         0.0891
     49 H22        -0.5338    0.6314   -2.5938 H         1 <0>         0.1070
     50 H23         0.0283   -0.4883    2.0068 H         1 <0>         0.4538
@<TRIPOS>BOND
     1    1    2 1
     2    1   29 1
     3    1   30 1
     4    1   31 1
     5    2    6 1
     6    2    3 2
     7    3    4 1
     8    3   28 1
     9    4    5 1
    10    4   21 1
    11    5    6 2
    12    5    7 1
    13    6   50 1
    14    7    8 1
    15    8    9 1
    16    8   32 1
    17    8   33 1
    18    9   13 1
    19    9   10 2
    20   10   11 1
    21   10   34 1
    22   11   12 1
    23   12   13 2
    24   12   14 1
    25   14   19 ar
    26   14   15 ar
    27   15   16 ar
    28   15   35 1
    29   16   17 ar
    30   16   36 1
    31   17   18 ar
    32   17   20 1
    33   18   19 ar
    34   18   37 1
    35   19   38 1
    36   21   22 1
    37   21   39 1
    38   21   40 1
    39   22   23 1
    40   22   27 1
    41   22   24 1
    42   24   25 1
    43   24   41 1
    44   24   42 1
    45   25   26 1
    46   25   43 1
    47   25   44 1
    48   26   27 1
    49   26   45 1
    50   26   46 1
    51   28   47 1
    52   28   48 1
    53   28   49 1
@<TRIPOS>MOLECULE
ZINC64045385
   56    60     0     0     0
SMALL
USER_CHARGES

@<TRIPOS>ATOM
      1 C1         -0.2799    1.3848   -1.1913 C.3       1 <0>         0.0211
      2 O1         -0.4389   -0.0194   -1.4035 O.3       1 <0>        -0.3016
      3 C2         -1.4219   -0.6427   -0.7002 C.ar      1 <0>         0.1213
      4 C3         -2.2194    0.0825    0.1705 C.ar      1 <0>        -0.1830
      5 C4         -3.2185   -0.5526    0.8843 C.ar      1 <0>        -0.0728
      6 C5         -3.4243   -1.9112    0.7322 C.ar      1 <0>        -0.1644
      7 C6         -2.6319   -2.6407   -0.1344 C.ar      1 <0>        -0.1302
      8 C7         -1.6328   -2.0092   -0.8576 C.ar      1 <0>         0.0848
      9 O2         -0.8563   -2.7242   -1.7150 O.3       1 <0>        -0.3185
     10 C8          0.3932   -3.2029   -1.2133 C.3       1 <0>         0.0353
     11 C9         -2.8587   -4.1216   -0.2973 C.3       1 <0>         0.1420
     12 H1         -2.0799   -4.5449   -0.9316 H         1 <0>         0.1312
     13 C10        -2.8330   -4.8012    1.0739 C.3       1 <0>         0.0969
     14 H2         -2.8879   -5.8842    0.9636 H         1 <0>         0.1836
     15 C11        -4.0483   -4.2784    1.8314 C.2       1 <0>         0.0836
     16 C12        -3.5952   -3.7954    2.9798 C.ar      1 <0>        -0.1761
     17 C13        -4.2887   -3.2398    4.1531 C.ar      1 <0>         0.0033
     18 C14        -3.4965   -2.8160    5.1731 C.ar      1 <0>        -0.1615
     19 C15        -2.1003   -2.8879    5.1438 C.ar      1 <0>         0.0525
     20 C16        -1.3798   -3.3890    4.1090 C.ar      1 <0>        -0.2061
     21 C17        -2.1019   -3.8721    2.9794 C.ar      1 <0>         0.3377
     22 N1         -1.6626   -4.4263    1.8659 N.pl3     1 <0>        -0.5842
     23 C18        -5.4271   -4.2842    1.2171 C.3       1 <0>        -0.0868
     24 C19        -5.2711   -3.6890   -0.1943 C.3       1 <0>         0.0228
     25 N2         -4.1773   -4.3572   -0.9067 N.3       1 <0>        -0.5170
     26 C20        -4.1726   -3.9915   -2.3294 C.3       1 <0>         0.1171
     27 C21        -5.4474   -4.4698   -2.9752 C.ar      1 <0>         0.1238
     28 C22        -6.5175   -3.6036   -3.0986 C.ar      1 <0>        -0.1700
     29 C23        -7.6856   -4.0535   -3.6943 C.ar      1 <0>        -0.0714
     30 C24        -7.7340   -5.3639   -4.1456 C.ar      1 <0>        -0.1643
     31 C25        -6.6242   -6.1718   -3.9877 C.ar      1 <0>         0.1048
     32 N3         -5.5273   -5.7082   -3.4209 N.ar      1 <0>        -0.4639
     33 H3          0.5359    1.7559   -1.8116 H         1 <0>         0.1104
     34 H4         -1.2028    1.8994   -1.4587 H         1 <0>         0.0620
     35 H5         -0.0516    1.5701   -0.1417 H         1 <0>         0.0593
     36 H6         -2.0603    1.1438    0.2917 H         1 <0>         0.1417
     37 H7         -3.8394    0.0138    1.5626 H         1 <0>         0.1360
     38 H8         -4.2056   -2.4038    1.2919 H         1 <0>         0.1368
     39 H9          0.9519   -3.6759   -2.0209 H         1 <0>         0.1058
     40 H10         0.9685   -2.3676   -0.8141 H         1 <0>         0.0545
     41 H11         0.2122   -3.9305   -0.4220 H         1 <0>         0.0315
     42 H12        -5.3655   -3.1724    4.2008 H         1 <0>         0.1686
     43 H13        -3.9698   -2.4020    6.0512 H         1 <0>         0.1535
     44 H14        -1.5590   -2.5193    6.0026 H         1 <0>         0.1556
     45 H15        -0.3007   -3.4204    4.1402 H         1 <0>         0.1653
     46 H16        -5.8045   -5.3048    1.1535 H         1 <0>         0.1334
     47 H17        -6.1041   -3.6694    1.8102 H         1 <0>         0.1179
     48 H18        -6.1996   -3.8254   -0.7487 H         1 <0>         0.1106
     49 H19        -5.0531   -2.6239   -0.1152 H         1 <0>         0.0756
     50 H20        -4.1008   -2.9081   -2.4258 H         1 <0>         0.0633
     51 H21        -3.3189   -4.4574   -2.8216 H         1 <0>         0.1059
     52 H22        -6.4446   -2.5891   -2.7353 H         1 <0>         0.1313
     53 H23        -8.5378   -3.3992   -3.8039 H         1 <0>         0.1381
     54 H24        -8.6279   -5.7482   -4.6142 H         1 <0>         0.1398
     55 H25        -6.6538   -7.1935   -4.3365 H         1 <0>         0.1604
     56 H26        -0.7369   -4.5602    1.6090 H         1 <0>         0.4528
@<TRIPOS>BOND
     1    1    2 1
     2    1   33 1
     3    1   34 1
     4    1   35 1
     5    2    3 1
     6    3    8 ar
     7    3    4 ar
     8    4    5 ar
     9    4   36 1
    10    5    6 ar
    11    5   37 1
    12    6    7 ar
    13    6   38 1
    14    7    8 ar
    15    7   11 1
    16    8    9 1
    17    9   10 1
    18   10   39 1
    19   10   40 1
    20   10   41 1
    21   11   12 1
    22   11   25 1
    23   11   13 1
    24   13   14 1
    25   13   22 1
    26   13   15 1
    27   15   16 2
    28   15   23 1
    29   16   21 ar
    30   16   17 ar
    31   17   18 ar
    32   17   42 1
    33   18   19 ar
    34   18   43 1
    35   19   20 ar
    36   19   44 1
    37   20   21 ar
    38   20   45 1
    39   21   22 2
    40   22   56 1
    41   23   24 1
    42   23   46 1
    43   23   47 1
    44   24   25 1
    45   24   48 1
    46   24   49 1
    47   25   26 1
    48   26   27 1
    49   26   50 1
    50   26   51 1
    51   27   32 ar
    52   27   28 ar
    53   28   29 ar
    54   28   52 1
    55   29   30 ar
    56   29   53 1
    57   30   31 ar
    58   30   54 1
    59   31   32 ar
    60   31   55 1
@<TRIPOS>MOLECULE
ZINC11839966
   61    63     0     0     0
SMALL
USER_CHARGES
N-[(1R)-2-(2-fluorophenyl)-1-[1-[(1S)-1-methyl-2-methylsulfanyl-ethyl]-4-piperidyl]ethyl]-N-methyl-thiophene-3-carboxamide
@<TRIPOS>ATOM
      1 C1          4.8685    4.6147    0.4378 C.3       1 <0>        -0.1760
      2 C2          5.0786    3.1526    0.0390 C.3       1 <0>         0.0514
      3 H1          5.5112    3.1071   -0.9604 H         1 <0>         0.1444
      4 C3          6.0267    2.4832    1.0360 C.3       1 <0>        -0.1315
      5 S1          6.3160    0.7641    0.5346 S.3       1 <0>        -0.2689
      6 C4          7.4435    0.1211    1.8019 C.3       1 <0>        -0.1073
      7 C5          3.0878    2.6510    1.3218 C.3       1 <0>        -0.0057
      8 C6          1.8204    1.7937    1.3490 C.3       1 <0>        -0.1446
      9 C7          0.9142    2.1938    0.1814 C.3       1 <0>        -0.1085
     10 C8          1.6817    2.0251   -1.1328 C.3       1 <0>        -0.1411
     11 C9          2.9539    2.8746   -1.0875 C.3       1 <0>        -0.0011
     12 C10        -0.3267    1.2989    0.1673 C.3       1 <0>         0.1545
     13 H2         -0.0238    0.2598    0.0385 H         1 <0>         0.1107
     14 C11        -1.0798    1.4504    1.4905 C.3       1 <0>        -0.0920
     15 C12        -2.2320    0.4798    1.5266 C.ar      1 <0>        -0.1183
     16 C13        -3.4954    0.8920    1.1467 C.ar      1 <0>        -0.0836
     17 C14        -4.5513    0.0004    1.1743 C.ar      1 <0>        -0.1256
     18 C15        -4.3474   -1.3016    1.5928 C.ar      1 <0>        -0.0865
     19 C16        -3.0864   -1.7144    1.9784 C.ar      1 <0>        -0.1481
     20 C17        -2.0266   -0.8236    1.9457 C.ar      1 <0>         0.1052
     21 F1         -0.7934   -1.2260    2.3230 F         1 <0>        -0.1408
     22 N1         -1.2008    1.6936   -0.9401 N.am      1 <0>        -0.6064
     23 C18        -1.6514    3.0826   -1.0584 C.3       1 <0>         0.0545
     24 C19        -1.5905    0.7789   -1.8500 C.2       1 <0>         0.5795
     25 O1         -1.3044   -0.3932   -1.6952 O.2       1 <0>        -0.5231
     26 C20        -2.3622    1.1982   -3.0312 C.2       1 <0>        -0.1772
     27 C21        -3.0693    0.2427   -3.8463 C.2       1 <0>        -0.1143
     28 C22        -3.7511    0.7246   -4.9039 C.2       1 <0>        -0.1843
     29 S2         -3.4377    2.4760   -4.8221 S.3       1 <0>         0.1296
     30 C23        -2.4360    2.5225   -3.4104 C.2       1 <0>        -0.1977
     31 H3          4.4359    4.6601    1.4372 H         1 <0>         0.0842
     32 H4          5.8268    5.1340    0.4328 H         1 <0>         0.1072
     33 H5          4.1931    5.0916   -0.2725 H         1 <0>         0.0870
     34 H6          6.9746    3.0211    1.0533 H         1 <0>         0.1275
     35 H7          5.5804    2.5015    2.0303 H         1 <0>         0.1053
     36 H8          8.3617    0.7086    1.8031 H         1 <0>         0.0910
     37 H9          6.9674    0.1891    2.7800 H         1 <0>         0.0871
     38 H10         7.6790   -0.9206    1.5839 H         1 <0>         0.1167
     39 H11         2.8179    3.7016    1.4286 H         1 <0>         0.1340
     40 H12         3.7416    2.3588    2.1435 H         1 <0>         0.1271
     41 H13         1.2935    1.9529    2.2898 H         1 <0>         0.1180
     42 H14         2.0905    0.7418    1.2561 H         1 <0>         0.0946
     43 H15         0.6114    3.2346    0.2954 H         1 <0>         0.0961
     44 H16         1.9496    0.9770   -1.2659 H         1 <0>         0.0908
     45 H17         1.0557    2.3497   -1.9640 H         1 <0>         0.1119
     46 H18         2.6847    3.9242   -0.9694 H         1 <0>         0.1312
     47 H19         3.5105    2.7446   -2.0156 H         1 <0>         0.1291
     48 H20        -0.4033    1.2423    2.3194 H         1 <0>         0.0891
     49 H21        -1.4594    2.4684    1.5780 H         1 <0>         0.0843
     50 H22        -3.6568    1.9099    0.8240 H         1 <0>         0.1253
     51 H23        -5.5373    0.3222    0.8731 H         1 <0>         0.1297
     52 H24        -5.1741   -1.9960    1.6185 H         1 <0>         0.1343
     53 H25        -2.9274   -2.7313    2.3055 H         1 <0>         0.1361
     54 H26        -0.9512    3.6399   -1.6807 H         1 <0>         0.0616
     55 H27        -2.6411    3.1059   -1.5146 H         1 <0>         0.0928
     56 H28        -1.6971    3.5353   -0.0680 H         1 <0>         0.0770
     57 H29        -3.0566   -0.8126   -3.6171 H         1 <0>         0.1476
     58 H30        -4.3401    0.1809   -5.6276 H         1 <0>         0.1927
     59 H31        -1.9791    3.3809   -2.9405 H         1 <0>         0.2072
     60 N2          3.7935    2.4236    0.0428 N.4       1 <0>        -0.3941
     61 H32         3.9797    1.4191   -0.0607 H         1 <0>         0.4303
@<TRIPOS>BOND
     1    1    2 1
     2    1   31 1
     3    1   32 1
     4    1   33 1
     5    2    3 1
     6    2    4 1
     7    2   60 1
     8    4    5 1
     9    4   34 1
    10    4   35 1
    11    5    6 1
    12    6   36 1
    13    6   37 1
    14    6   38 1
    15    7    8 1
    16    7   39 1
    17    7   40 1
    18    7   60 1
    19    8    9 1
    20    8   41 1
    21    8   42 1
    22    9   10 1
    23    9   12 1
    24    9   43 1
    25   10   11 1
    26   10   44 1
    27   10   45 1
    28   11   46 1
    29   11   47 1
    30   11   60 1
    31   12   13 1
    32   12   14 1
    33   12   22 1
    34   14   15 1
    35   14   48 1
    36   14   49 1
    37   15   20 ar
    38   15   16 ar
    39   16   17 ar
    40   16   50 1
    41   17   18 ar
    42   17   51 1
    43   18   19 ar
    44   18   52 1
    45   19   20 ar
    46   19   53 1
    47   20   21 1
    48   22   23 1
    49   22   24 am
    50   23   54 1
    51   23   55 1
    52   23   56 1
    53   24   25 2
    54   24   26 1
    55   26   30 2
    56   26   27 1
    57   27   28 2
    58   27   57 1
    59   28   29 1
    60   28   58 1
    61   29   30 1
    62   30   59 1
    63   60   61 1
@<TRIPOS>MOLECULE
ZINC13694566
   56    60     0     0     0
SMALL
USER_CHARGES
1-(1-naphthylmethyl)-4-[1-(p-tolyl)imidazol-2-yl]piperazine
@<TRIPOS>ATOM
      1 C1          3.6191    8.4745   -0.3716 C.3       1 <0>        -0.1335
      2 C2          2.8724    7.1662   -0.3275 C.ar      1 <0>        -0.0408
      3 C3          3.2485    6.1871    0.5736 C.ar      1 <0>        -0.1033
      4 C4          2.5663    4.9869    0.6161 C.ar      1 <0>        -0.0877
      5 C5          1.5018    4.7642   -0.2467 C.ar      1 <0>         0.0585
      6 C6          1.1295    5.7471   -1.1535 C.ar      1 <0>        -0.0831
      7 C7          1.8128    6.9471   -1.1884 C.ar      1 <0>        -0.1047
      8 N1          0.8076    3.5466   -0.2062 N.pl3     1 <0>        -0.3679
      9 C8          1.3620    2.2848   -0.2339 C.2       1 <0>         0.0250
     10 C9          0.3445    1.4089   -0.1760 C.2       1 <0>         0.0053
     11 N2         -0.8070    2.0999   -0.1202 N.pl3     1 <0>        -0.5274
     12 C10        -0.5438    3.3852   -0.1316 C.cat     1 <0>         0.5076
     13 N3         -1.4799    4.4044   -0.0817 N.pl3     1 <0>        -0.4491
     14 C11        -1.2124    5.3105    1.0439 C.3       1 <0>         0.0486
     15 C12        -2.2181    6.4639    1.0169 C.3       1 <0>         0.0545
     16 N4         -3.5823    5.9228    1.0929 N.3       1 <0>        -0.5331
     17 C13        -3.8498    5.0167   -0.0327 C.3       1 <0>         0.0528
     18 C14        -2.8441    3.8633   -0.0058 C.3       1 <0>         0.0384
     19 C15        -4.5754    7.0040    1.1458 C.3       1 <0>         0.0951
     20 C16        -4.5171    7.6741    2.4943 C.ar      1 <0>        -0.0760
     21 C17        -3.9462    8.9031    2.6235 C.ar      1 <0>        -0.1082
     22 C18        -3.8832    9.5382    3.8621 C.ar      1 <0>        -0.1192
     23 C19        -4.3909    8.9483    4.9789 C.ar      1 <0>        -0.0972
     24 C20        -4.9881    7.6800    4.8848 C.ar      1 <0>        -0.0539
     25 C21        -5.0567    7.0361    3.6239 C.ar      1 <0>        -0.0318
     26 C22        -5.6504    5.7656    3.5305 C.ar      1 <0>        -0.0979
     27 C23        -6.1572    5.1755    4.6473 C.ar      1 <0>        -0.1165
     28 C24        -6.0936    5.8106    5.8863 C.ar      1 <0>        -0.1150
     29 C25        -5.5228    7.0392    6.0156 C.ar      1 <0>        -0.1057
     30 H1          4.4220    8.4640    0.3803 H         1 <0>         0.0769
     31 H2          2.9252    9.3002   -0.1555 H         1 <0>         0.0839
     32 H3          4.0552    8.6142   -1.3718 H         1 <0>         0.0844
     33 H4          4.0767    6.3609    1.2446 H         1 <0>         0.1458
     34 H5          2.8610    4.2222    1.3196 H         1 <0>         0.1393
     35 H6          0.3046    5.5750   -1.8290 H         1 <0>         0.1386
     36 H7          1.5212    7.7136   -1.8912 H         1 <0>         0.1441
     37 H8          2.4136    2.0458   -0.2908 H         1 <0>         0.2207
     38 H9          0.4361    0.3328   -0.1787 H         1 <0>         0.2248
     39 H10        -1.3112    4.7586    1.9903 H         1 <0>         0.0771
     40 H11        -0.1915    5.7108    0.9578 H         1 <0>         0.1031
     41 H12        -2.0376    7.1279    1.8751 H         1 <0>         0.1041
     42 H13        -2.0995    7.0320    0.0825 H         1 <0>         0.0562
     43 H14        -4.8707    4.6164    0.0535 H         1 <0>         0.1055
     44 H15        -3.7511    5.5685   -0.9791 H         1 <0>         0.0587
     45 H16        -3.0234    3.1991   -0.8641 H         1 <0>         0.1027
     46 H17        -2.9616    3.2948    0.9285 H         1 <0>         0.0798
     47 H18        -4.3563    7.7418    0.3599 H         1 <0>         0.0556
     48 H19        -5.5807    6.5866    0.9869 H         1 <0>         0.0936
     49 H20        -3.5358    9.3931    1.7530 H         1 <0>         0.1198
     50 H21        -3.4249   10.5133    3.9371 H         1 <0>         0.1252
     51 H22        -4.3352    9.4527    5.9322 H         1 <0>         0.1287
     52 H23        -5.7075    5.2618    2.5769 H         1 <0>         0.1256
     53 H24        -6.6159    4.2007    4.5722 H         1 <0>         0.1214
     54 H25        -6.5037    5.3204    6.7569 H         1 <0>         0.1240
     55 H26        -5.4813    7.5195    6.9821 H         1 <0>         0.1281
     56 H27        -1.7674    1.5656   -0.0747 H         1 <0>         0.4984
@<TRIPOS>BOND
     1    1    2 1
     2    1   30 1
     3    1   31 1
     4    1   32 1
     5    2    7 ar
     6    2    3 ar
     7    3    4 ar
     8    3   33 1
     9    4    5 ar
    10    4   34 1
    11    5    6 ar
    12    5    8 1
    13    6    7 ar
    14    6   35 1
    15    7   36 1
    16    8   12 1
    17    8    9 1
    18    9   10 2
    19    9   37 1
    20   10   11 1
    21   10   38 1
    22   11   12 2
    23   11   56 1
    24   12   13 1
    25   13   18 1
    26   13   14 1
    27   14   15 1
    28   14   39 1
    29   14   40 1
    30   15   16 1
    31   15   41 1
    32   15   42 1
    33   16   17 1
    34   16   19 1
    35   17   18 1
    36   17   43 1
    37   17   44 1
    38   18   45 1
    39   18   46 1
    40   19   20 1
    41   19   47 1
    42   19   48 1
    43   20   25 ar
    44   20   21 ar
    45   21   22 ar
    46   21   49 1
    47   22   23 ar
    48   22   50 1
    49   23   24 ar
    50   23   51 1
    51   24   29 ar
    52   24   25 ar
    53   25   26 ar
    54   26   27 ar
    55   26   52 1
    56   27   28 ar
    57   27   53 1
    58   28   29 ar
    59   28   54 1
    60   29   55 1
@<TRIPOS>MOLECULE
ZINC40692219
   42    43     0     0     0
SMALL
USER_CHARGES

@<TRIPOS>ATOM
      1 C1         -0.0178    1.4648    0.0101 C.3       1 <0>        -0.0476
      2 N1          0.0021   -0.0041    0.0020 N.4       1 <0>        -0.3895
      3 C2          0.7126   -0.4907    1.1921 C.3       1 <0>        -0.0534
      4 C3         -1.3761   -0.5125    0.0124 C.3       1 <0>        -0.0086
      5 C4         -1.3584   -2.0365   -0.1216 C.3       1 <0>        -0.1156
      6 C5         -0.7935   -2.4214   -1.4909 C.3       1 <0>        -0.1443
      7 C6         -0.7451   -3.9481   -1.6081 C.3       1 <0>         0.1124
      8 N2         -2.0848   -4.4860   -1.3352 N.pl3     1 <0>        -0.9950
      9 C7         -2.7580   -4.1053   -0.0859 C.3       1 <0>         0.1147
     10 C8         -2.7838   -2.5769    0.0142 C.3       1 <0>        -0.1239
     11 S1         -2.8223   -5.5018   -2.4153 S.o2      1 <0>         2.6882
     12 O1         -4.2203   -5.3948   -2.1840 O.2       1 <0>        -0.9399
     13 O2         -2.2378   -5.2395   -3.6837 O.2       1 <0>        -0.9302
     14 C9         -2.3643   -7.1466   -1.9801 C.ar      1 <0>        -0.6680
     15 C10        -3.3258   -8.0398   -1.5456 C.ar      1 <0>        -0.0016
     16 C11        -2.9672   -9.3300   -1.2041 C.ar      1 <0>        -0.1026
     17 C12        -1.6455   -9.7285   -1.2968 C.ar      1 <0>        -0.0289
     18 C13        -0.6832   -8.8357   -1.7317 C.ar      1 <0>        -0.1005
     19 C14        -1.0434   -7.5457   -2.0786 C.ar      1 <0>         0.0564
     20 Cl1         0.1631   -6.4260   -2.6304 Cl        1 <0>        -0.0354
     21 Br1        -1.1550  -11.4936   -0.8282 Br        1 <0>        -0.0065
     22 H1          1.0047    1.8421    0.0024 H         1 <0>         0.1247
     23 H2         -0.5450    1.8259   -0.8730 H         1 <0>         0.1238
     24 H3         -0.5280    1.8163    0.9069 H         1 <0>         0.1228
     25 H4          0.7273   -1.5806    1.1861 H         1 <0>         0.1238
     26 H5          1.7352   -0.1134    1.1844 H         1 <0>         0.1249
     27 H6          0.2024   -0.1392    2.0889 H         1 <0>         0.1237
     28 H7         -1.8584   -0.2358    0.9500 H         1 <0>         0.1339
     29 H8         -1.9290   -0.0808   -0.8218 H         1 <0>         0.1333
     30 H9         -0.7323   -2.4628    0.6621 H         1 <0>         0.0999
     31 H10        -1.4331   -2.0164   -2.2752 H         1 <0>         0.0896
     32 H11         0.2129   -2.0163   -1.5962 H         1 <0>         0.0714
     33 H12        -0.4374   -4.2276   -2.6157 H         1 <0>         0.1069
     34 H13        -0.0361   -4.3479   -0.8832 H         1 <0>         0.0786
     35 H14        -3.7783   -4.4886   -0.0892 H         1 <0>         0.1071
     36 H15        -2.2131   -4.5179    0.7632 H         1 <0>         0.0784
     37 H16        -3.1940   -2.2825    0.9803 H         1 <0>         0.0916
     38 H17        -3.4046   -2.1704   -0.7842 H         1 <0>         0.0842
     39 H18        -4.3576   -7.7291   -1.4727 H         1 <0>         0.1646
     40 H19        -3.7187  -10.0273   -0.8644 H         1 <0>         0.1558
     41 H20         0.3486   -9.1465   -1.8042 H         1 <0>         0.1564
     42 H21         0.4744   -0.3295   -0.8281 H         1 <0>         0.4245
@<TRIPOS>BOND
     1    1    2 1
     2    1   22 1
     3    1   23 1
     4    1   24 1
     5    2    3 1
     6    2    4 1
     7    2   42 1
     8    3   25 1
     9    3   26 1
    10    3   27 1
    11    4    5 1
    12    4   28 1
    13    4   29 1
    14    5   10 1
    15    5    6 1
    16    5   30 1
    17    6    7 1
    18    6   31 1
    19    6   32 1
    20    7    8 1
    21    7   33 1
    22    7   34 1
    23    8    9 1
    24    8   11 1
    25    9   10 1
    26    9   35 1
    27    9   36 1
    28   10   37 1
    29   10   38 1
    30   11   12 2
    31   11   13 2
    32   11   14 1
    33   14   19 ar
    34   14   15 ar
    35   15   16 ar
    36   15   39 1
    37   16   17 ar
    38   16   40 1
    39   17   18 ar
    40   17   21 1
    41   18   19 ar
    42   18   41 1
    43   19   20 1
@<TRIPOS>MOLECULE
ZINC57992794
   49    51     0     0     0
SMALL
USER_CHARGES

@<TRIPOS>ATOM
      1 C1         -0.0154    1.3784   -0.0571 C.ar      1 <0>        -0.0918
      2 C2          1.1709    2.0861    0.0021 C.ar      1 <0>        -0.0799
      3 C3          2.3761    1.4119    0.0533 C.ar      1 <0>        -0.0917
      4 C4          2.3955    0.0283    0.0457 C.ar      1 <0>        -0.0142
      5 C5          1.2083   -0.6792   -0.0130 C.ar      1 <0>        -0.1279
      6 C6          0.0033   -0.0037   -0.0647 C.ar      1 <0>        -0.1195
      7 C7          1.2286   -2.1860   -0.0218 C.3       1 <0>         0.0707
      8 H1          2.0861   -2.5484    0.5452 H         1 <0>         0.1496
      9 C8          1.3037   -2.7016   -1.4743 C.3       1 <0>        -0.1292
     10 C9          0.3808   -3.9485   -1.4508 C.3       1 <0>        -0.1413
     11 C10        -0.7277   -3.4988   -0.4666 C.3       1 <0>        -0.0074
     12 N1         -0.0186   -2.7078    0.5666 N.4       1 <0>        -0.3799
     13 C11         0.2981   -3.5636    1.7178 C.3       1 <0>        -0.0355
     14 C12        -0.9800   -3.9950    2.3898 C.2       1 <0>         0.5085
     15 O1         -2.0495   -3.6259    1.9526 O.2       1 <0>        -0.5013
     16 N2         -0.9346   -4.7910    3.4764 N.am      1 <0>        -0.5417
     17 C13         0.3572   -5.2368    4.0044 C.3       1 <0>         0.0995
     18 C14         0.8611   -4.2280    5.0386 C.3       1 <0>        -0.0462
     19 C15         2.1590   -4.6760    5.5691 C.1       1 <0>         0.1885
     20 N3          3.1607   -5.0217    5.9785 N.1       1 <0>        -0.3947
     21 C16        -2.1223   -5.1919    4.1008 C.ar      1 <0>         0.0759
     22 C17        -2.7543   -6.3633    3.7068 C.ar      1 <0>        -0.0735
     23 C18        -3.9255   -6.7567    4.3248 C.ar      1 <0>        -0.1168
     24 C19        -4.4697   -5.9851    5.3351 C.ar      1 <0>        -0.0680
     25 C20        -3.8443   -4.8173    5.7309 C.ar      1 <0>        -0.1432
     26 C21        -2.6681   -4.4205    5.1208 C.ar      1 <0>         0.1137
     27 F1         -2.0538   -3.2824    5.5112 F         1 <0>        -0.1314
     28 Cl1         3.9092   -0.8193    0.1094 Cl        1 <0>        -0.0435
     29 H2         -0.9573    1.9057   -0.0929 H         1 <0>         0.1450
     30 H3          1.1557    3.1659    0.0079 H         1 <0>         0.1481
     31 H4          3.3028    1.9648    0.0988 H         1 <0>         0.1497
     32 H5         -0.9237   -0.5559   -0.1110 H         1 <0>         0.1289
     33 H6          0.9226   -1.9532   -2.1691 H         1 <0>         0.1068
     34 H7          2.3250   -2.9828   -1.7311 H         1 <0>         0.1197
     35 H8         -0.0322   -4.1473   -2.4397 H         1 <0>         0.1237
     36 H9          0.9120   -4.8202   -1.0687 H         1 <0>         0.0994
     37 H10        -1.4637   -2.8806   -0.9807 H         1 <0>         0.1392
     38 H11        -1.2086   -4.3662   -0.0147 H         1 <0>         0.1374
     39 H12         0.8444   -4.4432    1.3773 H         1 <0>         0.1661
     40 H13         0.9112   -3.0069    2.4266 H         1 <0>         0.1612
     41 H14         0.2399   -6.2125    4.4758 H         1 <0>         0.1149
     42 H15         1.0768   -5.3114    3.1891 H         1 <0>         0.1001
     43 H16         0.9784   -3.2523    4.5671 H         1 <0>         0.1085
     44 H17         0.1415   -4.1534    5.8539 H         1 <0>         0.1224
     45 H18        -2.3308   -6.9666    2.9174 H         1 <0>         0.1376
     46 H19        -4.4170   -7.6681    4.0181 H         1 <0>         0.1424
     47 H20        -5.3857   -6.2954    5.8159 H         1 <0>         0.1446
     48 H21        -4.2721   -4.2167    6.5200 H         1 <0>         0.1475
     49 H22        -0.6003   -1.9396    0.8659 H         1 <0>         0.4288
@<TRIPOS>BOND
     1    1    6 ar
     2    1    2 ar
     3    1   29 1
     4    2    3 ar
     5    2   30 1
     6    3    4 ar
     7    3   31 1
     8    4    5 ar
     9    4   28 1
    10    5    6 ar
    11    5    7 1
    12    6   32 1
    13    7    8 1
    14    7   12 1
    15    7    9 1
    16    9   10 1
    17    9   33 1
    18    9   34 1
    19   10   11 1
    20   10   35 1
    21   10   36 1
    22   11   12 1
    23   11   37 1
    24   11   38 1
    25   12   13 1
    26   12   49 1
    27   13   14 1
    28   13   39 1
    29   13   40 1
    30   14   15 2
    31   14   16 am
    32   16   17 1
    33   16   21 1
    34   17   18 1
    35   17   41 1
    36   17   42 1
    37   18   19 1
    38   18   43 1
    39   18   44 1
    40   19   20 3
    41   21   26 ar
    42   21   22 ar
    43   22   23 ar
    44   22   45 1
    45   23   24 ar
    46   23   46 1
    47   24   25 ar
    48   24   47 1
    49   25   26 ar
    50   25   48 1
    51   26   27 1
@<TRIPOS>MOLECULE
ZINC64650986
   49    53     0     0     0
SMALL
USER_CHARGES

@<TRIPOS>ATOM
      1 C1          0.1197    1.1525   -0.8312 C.3       1 <0>         0.0218
      2 O1          0.0019   -0.0037    0.0002 O.3       1 <0>        -0.3027
      3 C2         -1.2005   -0.6370    0.0096 C.ar      1 <0>         0.1845
      4 C3         -2.2438   -0.1585   -0.7702 C.ar      1 <0>        -0.2134
      5 C4         -3.4656   -0.8029   -0.7599 C.ar      1 <0>        -0.0639
      6 C5         -3.6507   -1.9247    0.0267 C.ar      1 <0>        -0.2354
      7 C6         -2.6118   -2.4051    0.8061 C.ar      1 <0>         0.1676
      8 C7         -1.3846   -1.7655    0.7941 C.ar      1 <0>        -0.1853
      9 F1         -2.7948   -3.5012    1.5744 F         1 <0>        -0.1216
     10 C8         -4.9849   -2.6253    0.0362 C.3       1 <0>         0.1468
     11 H1         -4.9147   -3.5410    0.6233 H         1 <0>         0.1312
     12 C9         -5.4006   -2.9625   -1.3977 C.3       1 <0>         0.0996
     13 H2         -6.3098   -3.5638   -1.3995 H         1 <0>         0.1851
     14 C10        -5.6396   -1.6291   -2.0968 C.2       1 <0>         0.0750
     15 C11        -4.8891   -1.6386   -3.1895 C.ar      1 <0>        -0.1742
     16 C12        -4.7582   -0.6805   -4.2991 C.ar      1 <0>        -0.0008
     17 C13        -3.8647   -1.0058   -5.2703 C.ar      1 <0>        -0.1588
     18 C14        -3.0969   -2.1743   -5.2491 C.ar      1 <0>         0.0513
     19 C15        -3.1568   -3.1137   -4.2718 C.ar      1 <0>        -0.2040
     20 C16        -4.0653   -2.8864   -3.1977 C.ar      1 <0>         0.3375
     21 N1         -4.3409   -3.6354   -2.1473 N.pl3     1 <0>        -0.5786
     22 C17        -6.5127   -0.5600   -1.4858 C.3       1 <0>        -0.0856
     23 C18        -6.0601   -0.4212   -0.0206 C.3       1 <0>         0.0205
     24 N2         -6.0058   -1.7399    0.6186 N.3       1 <0>        -0.5214
     25 C19        -5.8277   -1.6153    2.0715 C.3       1 <0>         0.1551
     26 C20        -7.0201   -0.9105    2.6651 C.2       1 <0>         0.0371
     27 N3         -8.1287   -1.4341    3.1256 N.2       1 <0>        -0.4889
     28 C21        -9.0905   -0.6798    3.6189 C.2       1 <0>         0.0314
     29 C22        -8.8780    0.6611    3.6267 C.2       1 <0>        -0.2064
     30 S1         -7.2471    0.7401    2.9038 S.3       1 <0>         0.0997
     31 H3          1.1269    1.5603   -0.7459 H         1 <0>         0.1130
     32 H4         -0.0737    0.8759   -1.8677 H         1 <0>         0.0611
     33 H5         -0.6043    1.9032   -0.5144 H         1 <0>         0.0637
     34 H6         -2.1007    0.7180   -1.3848 H         1 <0>         0.1438
     35 H7         -4.2773   -0.4298   -1.3667 H         1 <0>         0.1427
     36 H8         -0.5726   -2.1425    1.3981 H         1 <0>         0.1548
     37 H9         -5.3393    0.2290   -4.3395 H         1 <0>         0.1692
     38 H10        -3.7410   -0.3267   -6.1009 H         1 <0>         0.1541
     39 H11        -2.4102   -2.3406   -6.0660 H         1 <0>         0.1564
     40 H12        -2.5400   -3.9995   -4.3068 H         1 <0>         0.1670
     41 H13        -6.3725    0.3842   -2.0121 H         1 <0>         0.1204
     42 H14        -7.5592   -0.8618   -1.5276 H         1 <0>         0.1354
     43 H15        -5.0712    0.0361    0.0103 H         1 <0>         0.0750
     44 H16        -6.7658    0.2120    0.5171 H         1 <0>         0.1102
     45 H17        -5.7355   -2.6078    2.5126 H         1 <0>         0.1185
     46 H18        -4.9253   -1.0402    2.2789 H         1 <0>         0.0734
     47 H19       -10.0059   -1.1087    3.9990 H         1 <0>         0.1789
     48 H20        -9.5167    1.4586    3.9767 H         1 <0>         0.2024
     49 H21        -3.9205   -4.4756   -1.9060 H         1 <0>         0.4568
@<TRIPOS>BOND
     1    1    2 1
     2    1   31 1
     3    1   32 1
     4    1   33 1
     5    2    3 1
     6    3    8 ar
     7    3    4 ar
     8    4    5 ar
     9    4   34 1
    10    5    6 ar
    11    5   35 1
    12    6    7 ar
    13    6   10 1
    14    7    8 ar
    15    7    9 1
    16    8   36 1
    17   10   11 1
    18   10   24 1
    19   10   12 1
    20   12   13 1
    21   12   21 1
    22   12   14 1
    23   14   15 2
    24   14   22 1
    25   15   20 ar
    26   15   16 ar
    27   16   17 ar
    28   16   37 1
    29   17   18 ar
    30   17   38 1
    31   18   19 ar
    32   18   39 1
    33   19   20 ar
    34   19   40 1
    35   20   21 2
    36   21   49 1
    37   22   23 1
    38   22   41 1
    39   22   42 1
    40   23   24 1
    41   23   43 1
    42   23   44 1
    43   24   25 1
    44   25   26 1
    45   25   45 1
    46   25   46 1
    47   26   30 1
    48   26   27 2
    49   27   28 1
    50   28   29 2
    51   28   47 1
    52   29   30 1
    53   29   48 1
@<TRIPOS>MOLECULE
ZINC02225708
   49    52     0     0     0
SMALL
USER_CHARGES
3-[2-(4-methoxyphenyl)ethyl]-5-[(2-methyl-2,3-dihydrobenzofuran-5-yl)methylene]-2-thioxo-thiazolidin-4-one
@<TRIPOS>ATOM
      1 C1         -0.8986    8.1022   -2.8487 C.3       1 <0>        -0.1737
      2 C2         -1.4101    7.6866   -1.4680 C.3       1 <0>         0.0756
      3 H1         -2.3648    8.1647   -1.2487 H         1 <0>         0.1232
      4 C3         -1.5327    6.1476   -1.3695 C.3       1 <0>        -0.1102
      5 C4         -0.1871    5.7631   -0.7845 C.ar      1 <0>        -0.1722
      6 C5          0.4704    4.5607   -0.7043 C.ar      1 <0>        -0.0317
      7 C6          1.7336    4.4960   -0.1015 C.ar      1 <0>        -0.1375
      8 C7          2.3156    5.6660    0.4024 C.ar      1 <0>        -0.0335
      9 C8          1.6479    6.8637    0.3121 C.ar      1 <0>        -0.1437
     10 C9          0.3853    6.9276   -0.2803 C.ar      1 <0>         0.1459
     11 O1         -0.4411    7.9949   -0.4520 O.3       1 <0>        -0.2917
     12 C10         2.4433    3.2142   -0.0044 C.2       1 <0>         0.1061
     13 C11         1.8099    2.0607   -0.3374 C.2       1 <0>        -0.2585
     14 C12         2.3510    0.6927   -0.4650 C.2       1 <0>         0.5468
     15 O2          3.5264    0.4487   -0.2645 O.2       1 <0>        -0.4577
     16 N1          1.4938   -0.2539   -0.8085 N.am      1 <0>        -0.5198
     17 C13         0.1922    0.0209   -1.0301 C.2       1 <0>         0.2605
     18 S1         -1.0604   -1.0565   -1.4785 S.2       1 <0>        -0.3408
     19 S2          0.0916    1.7803   -0.7427 S.3       1 <0>         0.0748
     20 C14         1.9688   -1.6324   -0.9511 C.3       1 <0>         0.0871
     21 C15         2.4232   -1.8687   -2.3929 C.3       1 <0>        -0.0837
     22 C16         2.9118   -3.2867   -2.5395 C.ar      1 <0>        -0.1234
     23 C17         4.2444   -3.5836   -2.3208 C.ar      1 <0>        -0.0703
     24 C18         4.6937   -4.8836   -2.4491 C.ar      1 <0>        -0.2075
     25 C19         3.8089   -5.8897   -2.8093 C.ar      1 <0>         0.1291
     26 C20         2.4735   -5.5882   -3.0338 C.ar      1 <0>        -0.1496
     27 C21         2.0280   -4.2876   -2.8982 C.ar      1 <0>        -0.0671
     28 O3          4.2498   -7.1683   -2.9424 O.3       1 <0>        -0.3172
     29 C22         5.6372   -7.4051   -2.6958 C.3       1 <0>         0.0264
     30 H2         -1.5935    7.7550   -3.6133 H         1 <0>         0.0799
     31 H3         -0.8201    9.1884   -2.8953 H         1 <0>         0.0717
     32 H4          0.0823    7.6594   -3.0212 H         1 <0>         0.0631
     33 H5         -1.6699    5.7039   -2.3556 H         1 <0>         0.0995
     34 H6         -2.3443    5.8635   -0.6997 H         1 <0>         0.0989
     35 H7          0.0131    3.6661   -1.1005 H         1 <0>         0.1323
     36 H8          3.2918    5.6269    0.8628 H         1 <0>         0.1464
     37 H9          2.1029    7.7620    0.7025 H         1 <0>         0.1407
     38 H10         3.4693    3.1891    0.3320 H         1 <0>         0.1657
     39 H11         2.8065   -1.7999   -0.2741 H         1 <0>         0.1054
     40 H12         1.1609   -2.3222   -0.7071 H         1 <0>         0.1152
     41 H13         1.5855   -1.7011   -3.0699 H         1 <0>         0.0833
     42 H14         3.2311   -1.1789   -2.6369 H         1 <0>         0.0765
     43 H15         4.9338   -2.7991   -2.0454 H         1 <0>         0.1253
     44 H16         5.7337   -5.1158   -2.2734 H         1 <0>         0.1291
     45 H17         1.7829   -6.3696   -3.3146 H         1 <0>         0.1331
     46 H18         0.9885   -4.0524   -3.0728 H         1 <0>         0.1346
     47 H19         6.2356   -6.8152   -3.3901 H         1 <0>         0.0560
     48 H20         5.8787   -7.1171   -1.6726 H         1 <0>         0.0561
     49 H21         5.8557   -8.4637   -2.8364 H         1 <0>         0.1015
@<TRIPOS>BOND
     1    1    2 1
     2    1   30 1
     3    1   31 1
     4    1   32 1
     5    2    3 1
     6    2   11 1
     7    2    4 1
     8    4    5 1
     9    4   33 1
    10    4   34 1
    11    5   10 ar
    12    5    6 ar
    13    6    7 ar
    14    6   35 1
    15    7    8 ar
    16    7   12 1
    17    8    9 ar
    18    8   36 1
    19    9   10 ar
    20    9   37 1
    21   10   11 1
    22   12   13 2
    23   12   38 1
    24   13   19 1
    25   13   14 1
    26   14   15 2
    27   14   16 am
    28   16   17 1
    29   16   20 1
    30   17   18 2
    31   17   19 1
    32   20   21 1
    33   20   39 1
    34   20   40 1
    35   21   22 1
    36   21   41 1
    37   21   42 1
    38   22   27 ar
    39   22   23 ar
    40   23   24 ar
    41   23   43 1
    42   24   25 ar
    43   24   44 1
    44   25   26 ar
    45   25   28 1
    46   26   27 ar
    47   26   45 1
    48   27   46 1
    49   28   29 1
    50   29   47 1
    51   29   48 1
    52   29   49 1
@<TRIPOS>MOLECULE
ZINC00979935
   40    42     0     0     0
SMALL
USER_CHARGES
5-[[2-[(3,4-dichlorophenyl)methoxy]phenyl]methylene]-3-prop-2-ynyl-thiazolidine-2,4-dione
@<TRIPOS>ATOM
      1 C1         -1.9704   10.2628    3.4241 C.1       1 <0>        -0.1497
      2 C2         -2.3957    9.7959    2.4345 C.1       1 <0>        -0.2254
      3 C3         -2.9291    9.2106    1.1936 C.3       1 <0>         0.2086
      4 N1         -2.5826    7.7883    1.1363 N.am      1 <0>        -0.5768
      5 C4         -1.4445    7.4227    0.5707 C.2       1 <0>         0.5598
      6 O1         -0.6756    8.2382    0.0962 O.2       1 <0>        -0.4650
      7 C5         -1.1557    5.9753    0.5401 C.2       1 <0>        -0.2250
      8 C6         -0.0838    5.3175    0.0295 C.2       1 <0>         0.0957
      9 C7         -0.0809    3.8506   -0.0255 C.ar      1 <0>        -0.1284
     10 C8         -1.2820    3.1392    0.0786 C.ar      1 <0>        -0.0514
     11 C9         -1.2716    1.7629    0.0208 C.ar      1 <0>        -0.1530
     12 C10        -0.0763    1.0781   -0.1288 C.ar      1 <0>        -0.0481
     13 C11         1.1170    1.7669   -0.2324 C.ar      1 <0>        -0.2142
     14 C12         1.1272    3.1515   -0.1824 C.ar      1 <0>         0.1711
     15 O2          2.2988    3.8289   -0.2841 O.3       1 <0>        -0.3019
     16 C13         3.4868    3.0504   -0.4413 C.3       1 <0>         0.1008
     17 C14         4.6791    3.9671   -0.5364 C.ar      1 <0>        -0.0849
     18 C15         5.1006    4.4268   -1.7704 C.ar      1 <0>        -0.0761
     19 C16         6.1905    5.2720   -1.8585 C.ar      1 <0>        -0.1001
     20 C17         6.8674    5.6496   -0.7125 C.ar      1 <0>        -0.0200
     21 C18         6.4489    5.1848    0.5226 C.ar      1 <0>        -0.0352
     22 C19         5.3542    4.3433    0.6094 C.ar      1 <0>        -0.0730
     23 Cl1         7.2968    5.6580    1.9616 Cl        1 <0>        -0.0403
     24 Cl2         8.2405    6.7060   -0.8232 Cl        1 <0>        -0.0402
     25 S1         -2.6021    5.3278    1.3673 S.3       1 <0>        -0.0419
     26 C20        -3.4284    6.8820    1.6673 C.2       1 <0>         0.5383
     27 O3         -4.4959    7.0763    2.2170 O.2       1 <0>        -0.4139
     28 H1         -1.5900   10.6803    4.3093 H         1 <0>         0.2245
     29 H2         -2.4976    9.7246    0.3347 H         1 <0>         0.1249
     30 H3         -4.0133    9.3214    1.1764 H         1 <0>         0.1219
     31 H4          0.7669    5.8733   -0.3362 H         1 <0>         0.1647
     32 H5         -2.2156    3.6686    0.1995 H         1 <0>         0.1441
     33 H6         -2.1991    1.2148    0.0964 H         1 <0>         0.1354
     34 H7         -0.0779   -0.0011   -0.1693 H         1 <0>         0.1344
     35 H8          2.0434    1.2250   -0.3530 H         1 <0>         0.1374
     36 H9          3.6043    2.3894    0.4173 H         1 <0>         0.0821
     37 H10         3.4130    2.4547   -1.3511 H         1 <0>         0.0838
     38 H11         4.5752    4.1284   -2.6656 H         1 <0>         0.1432
     39 H12         6.5166    5.6340   -2.8223 H         1 <0>         0.1484
     40 H13         5.0274    3.9800    1.5725 H         1 <0>         0.1459
@<TRIPOS>BOND
     1    1    2 3
     2    1   28 1
     3    2    3 1
     4    3    4 1
     5    3   29 1
     6    3   30 1
     7    4   26 am
     8    4    5 am
     9    5    6 2
    10    5    7 1
    11    7    8 2
    12    7   25 1
    13    8    9 1
    14    8   31 1
    15    9   14 ar
    16    9   10 ar
    17   10   11 ar
    18   10   32 1
    19   11   12 ar
    20   11   33 1
    21   12   13 ar
    22   12   34 1
    23   13   14 ar
    24   13   35 1
    25   14   15 1
    26   15   16 1
    27   16   17 1
    28   16   36 1
    29   16   37 1
    30   17   22 ar
    31   17   18 ar
    32   18   19 ar
    33   18   38 1
    34   19   20 ar
    35   19   39 1
    36   20   21 ar
    37   20   24 1
    38   21   22 ar
    39   21   23 1
    40   22   40 1
    41   25   26 1
    42   26   27 2
@<TRIPOS>MOLECULE
ZINC15010841
   47    50     0     0     0
SMALL
USER_CHARGES
(5Z)-5-[[2-[(2-fluorophenyl)methoxy]phenyl]methylene]-3-(3-pyridylmethyl)-2-thioxo-thiazolidin-4-one
@<TRIPOS>ATOM
      1 C1          5.5320   -3.3381   -0.2565 C.ar      1 <0>        -0.1267
      2 C2          6.7543   -3.9763   -0.3595 C.ar      1 <0>        -0.0857
      3 C3          7.9153   -3.2341   -0.4616 C.ar      1 <0>        -0.1497
      4 C4          7.8544   -1.8506   -0.4608 C.ar      1 <0>         0.1067
      5 C5          6.6301   -1.2128   -0.3576 C.ar      1 <0>        -0.1309
      6 C6          5.4705   -1.9573   -0.2498 C.ar      1 <0>        -0.0706
      7 C7          6.5621    0.2927   -0.3567 C.3       1 <0>         0.1052
      8 O1          5.1997    0.7079   -0.2409 O.3       1 <0>        -0.3036
      9 C8          4.9620    2.0441   -0.2248 C.ar      1 <0>         0.1772
     10 C9          6.0150    2.9396   -0.3187 C.ar      1 <0>        -0.2125
     11 C10         5.7720    4.2997   -0.3027 C.ar      1 <0>        -0.0427
     12 C11         4.4771    4.7804   -0.1929 C.ar      1 <0>        -0.1508
     13 C12         3.4160    3.9063   -0.1042 C.ar      1 <0>        -0.0505
     14 C13         3.6473    2.5257   -0.1133 C.ar      1 <0>        -0.1355
     15 C14         2.5229    1.5876   -0.0131 C.2       1 <0>         0.1154
     16 C15         1.2605    2.0100   -0.2798 C.2       1 <0>        -0.2609
     17 C16        -0.0245    1.3037   -0.1073 C.2       1 <0>         0.5487
     18 O2         -0.0769    0.1695    0.3312 O.2       1 <0>        -0.4586
     19 N1         -1.1153    1.9637   -0.4585 N.am      1 <0>        -0.5174
     20 C17        -1.0532    3.2220   -0.9397 C.2       1 <0>         0.2638
     21 S1         -2.3406    4.2339   -1.4396 S.2       1 <0>        -0.3339
     22 S2          0.6972    3.5744   -0.9364 S.3       1 <0>         0.0798
     23 C18        -2.4213    1.3151   -0.3166 C.3       1 <0>         0.1315
     24 C19        -2.9818    1.6085    1.0512 C.ar      1 <0>        -0.1789
     25 C20        -2.7141    0.7615    2.1161 C.ar      1 <0>        -0.0494
     26 C21        -3.2471    1.0734    3.3573 C.ar      1 <0>        -0.1783
     27 C22        -4.0308    2.2044    3.4888 C.ar      1 <0>         0.1117
     28 N2         -4.2685    2.9845    2.4527 N.ar      1 <0>        -0.4835
     29 C23        -3.7737    2.7217    1.2588 C.ar      1 <0>         0.1267
     30 F1          8.9890   -1.1240   -0.5602 F         1 <0>        -0.1361
     31 H1          4.6250   -3.9190   -0.1767 H         1 <0>         0.1340
     32 H2          6.8016   -5.0552   -0.3597 H         1 <0>         0.1364
     33 H3          8.8699   -3.7328   -0.5417 H         1 <0>         0.1405
     34 H4          4.5156   -1.4599   -0.1648 H         1 <0>         0.1404
     35 H5          6.9809    0.6759   -1.2872 H         1 <0>         0.0855
     36 H6          7.1334    0.6816    0.4862 H         1 <0>         0.0855
     37 H7          7.0275    2.5739   -0.4049 H         1 <0>         0.1394
     38 H8          6.5969    4.9929   -0.3765 H         1 <0>         0.1372
     39 H9          4.2984    5.8455   -0.1810 H         1 <0>         0.1382
     40 H10         2.4080    4.2855   -0.0233 H         1 <0>         0.1400
     41 H11         2.6997    0.5612    0.2728 H         1 <0>         0.1644
     42 H12        -3.1015    1.6975   -1.0776 H         1 <0>         0.1243
     43 H13        -2.3073    0.2381   -0.4392 H         1 <0>         0.1158
     44 H14        -2.1018   -0.1181    1.9826 H         1 <0>         0.1395
     45 H15        -3.0562    0.4382    4.2096 H         1 <0>         0.1390
     46 H16        -4.4531    2.4522    4.4515 H         1 <0>         0.1597
     47 H17        -3.9902    3.3840    0.4337 H         1 <0>         0.1697
@<TRIPOS>BOND
     1    1    6 ar
     2    1    2 ar
     3    1   31 1
     4    2    3 ar
     5    2   32 1
     6    3    4 ar
     7    3   33 1
     8    4    5 ar
     9    4   30 1
    10    5    6 ar
    11    5    7 1
    12    6   34 1
    13    7    8 1
    14    7   35 1
    15    7   36 1
    16    8    9 1
    17    9   14 ar
    18    9   10 ar
    19   10   11 ar
    20   10   37 1
    21   11   12 ar
    22   11   38 1
    23   12   13 ar
    24   12   39 1
    25   13   14 ar
    26   13   40 1
    27   14   15 1
    28   15   16 2
    29   15   41 1
    30   16   22 1
    31   16   17 1
    32   17   18 2
    33   17   19 am
    34   19   20 1
    35   19   23 1
    36   20   21 2
    37   20   22 1
    38   23   24 1
    39   23   42 1
    40   23   43 1
    41   24   29 ar
    42   24   25 ar
    43   25   26 ar
    44   25   44 1
    45   26   27 ar
    46   26   45 1
    47   27   28 ar
    48   27   46 1
    49   28   29 ar
    50   29   47 1
@<TRIPOS>MOLECULE
ZINC34947735
   48    50     0     0     0
SMALL
USER_CHARGES

@<TRIPOS>ATOM
      1 C1         -0.1194    1.8320    0.6548 C.3       1 <0>        -0.1070
      2 C2         -0.1622    0.3403    0.4450 C.ar      1 <0>         0.1318
      3 C3         -0.3002   -0.1661   -0.8338 C.ar      1 <0>        -0.1665
      4 C4         -0.3384   -1.5398   -1.0158 C.ar      1 <0>        -0.0649
      5 C5         -0.2360   -2.3566    0.1001 C.ar      1 <0>        -0.1776
      6 C6         -0.1002   -1.7782    1.3477 C.ar      1 <0>         0.1100
      7 N1         -0.0622   -0.4668    1.4828 N.ar      1 <0>        -0.4630
      8 C7          0.0119   -2.6562    2.5674 C.3       1 <0>         0.1545
      9 N2          1.4251   -2.8494    2.9017 N.pl3     1 <0>        -0.9803
     10 C8          2.1173   -1.8750    3.7488 C.3       1 <0>         0.1977
     11 H1          3.0094   -1.5161    3.2354 H         1 <0>         0.0817
     12 C9          1.1854   -0.6961    4.0362 C.3       1 <0>        -0.1670
     13 C10         2.5139   -2.5298    5.0469 C.ar      1 <0>        -0.0929
     14 C11         1.6854   -3.4720    5.6271 C.ar      1 <0>        -0.1125
     15 C12         2.0492   -4.0727    6.8178 C.ar      1 <0>        -0.1158
     16 C13         3.2417   -3.7316    7.4280 C.ar      1 <0>        -0.1188
     17 C14         4.0707   -2.7900    6.8473 C.ar      1 <0>        -0.1148
     18 C15         3.7089   -2.1925    5.6544 C.ar      1 <0>        -0.1010
     19 S1          2.2401   -4.1693    2.3222 S.o2      1 <0>         2.6808
     20 O1          3.3282   -4.3958    3.2076 O.2       1 <0>        -0.9307
     21 O2          1.2616   -5.1626    2.0480 O.2       1 <0>        -0.9507
     22 C16         2.9398   -3.7101    0.7716 C.ar      1 <0>        -0.6669
     23 C17         2.2184   -3.8933   -0.3934 C.ar      1 <0>        -0.0135
     24 C18         2.7667   -3.5328   -1.6099 C.ar      1 <0>        -0.1109
     25 C19         4.0373   -2.9886   -1.6615 C.ar      1 <0>        -0.0373
     26 C20         4.7587   -2.8054   -0.4955 C.ar      1 <0>        -0.1117
     27 C21         4.2076   -3.1614    0.7210 C.ar      1 <0>        -0.0112
     28 Br1         4.7882   -2.4957   -3.3256 Br        1 <0>        -0.0321
     29 H2          0.9127    2.1777    0.5960 H         1 <0>         0.0788
     30 H3         -0.7119    2.3245   -0.1162 H         1 <0>         0.0757
     31 H4         -0.5279    2.0728    1.6362 H         1 <0>         0.0794
     32 H5         -0.3775    0.5001   -1.6803 H         1 <0>         0.1352
     33 H6         -0.4458   -1.9638   -2.0033 H         1 <0>         0.1361
     34 H7         -0.2625   -3.4312   -0.0045 H         1 <0>         0.1365
     35 H8         -0.4980   -2.1808    3.4054 H         1 <0>         0.1154
     36 H9         -0.4485   -3.6227    2.3629 H         1 <0>         0.1118
     37 H10         0.2524   -1.0658    4.4616 H         1 <0>         0.0650
     38 H11         1.6639   -0.0187    4.7435 H         1 <0>         0.0648
     39 H12         0.9759   -0.1639    3.1083 H         1 <0>         0.1080
     40 H13         0.7537   -3.7386    5.1504 H         1 <0>         0.1170
     41 H14         1.4015   -4.8083    7.2714 H         1 <0>         0.1212
     42 H15         3.5256   -4.2004    8.3586 H         1 <0>         0.1206
     43 H16         5.0022   -2.5232    7.3242 H         1 <0>         0.1217
     44 H17         4.3583   -1.4596    5.1988 H         1 <0>         0.1201
     45 H18         1.2265   -4.3186   -0.3530 H         1 <0>         0.1472
     46 H19         2.2032   -3.6763   -2.5200 H         1 <0>         0.1432
     47 H20         5.7508   -2.3805   -0.5354 H         1 <0>         0.1441
     48 H21         4.7691   -3.0146    1.6318 H         1 <0>         0.1488
@<TRIPOS>BOND
     1    1    2 1
     2    1   29 1
     3    1   30 1
     4    1   31 1
     5    2    7 ar
     6    2    3 ar
     7    3    4 ar
     8    3   32 1
     9    4    5 ar
    10    4   33 1
    11    5    6 ar
    12    5   34 1
    13    6    7 ar
    14    6    8 1
    15    8    9 1
    16    8   35 1
    17    8   36 1
    18    9   10 1
    19    9   19 1
    20   10   11 1
    21   10   12 1
    22   10   13 1
    23   12   37 1
    24   12   38 1
    25   12   39 1
    26   13   18 ar
    27   13   14 ar
    28   14   15 ar
    29   14   40 1
    30   15   16 ar
    31   15   41 1
    32   16   17 ar
    33   16   42 1
    34   17   18 ar
    35   17   43 1
    36   18   44 1
    37   19   20 2
    38   19   21 2
    39   19   22 1
    40   22   27 ar
    41   22   23 ar
    42   23   24 ar
    43   23   45 1
    44   24   25 ar
    45   24   46 1
    46   25   26 ar
    47   25   28 1
    48   26   27 ar
    49   26   47 1
    50   27   48 1
@<TRIPOS>MOLECULE
ZINC58370898
   41    42     0     0     0
SMALL
USER_CHARGES

@<TRIPOS>ATOM
      1 C1         -0.0178    1.4608    0.0101 C.3       1 <0>         0.0805
      2 N1          0.0021   -0.0041    0.0020 N.pl3     1 <0>        -1.0060
      3 C2          0.0241   -0.7433    1.2666 C.3       1 <0>         0.0914
      4 S1         -0.0004   -0.8243   -1.4366 S.o2      1 <0>         2.6958
      5 O1         -0.5312   -2.1147   -1.1675 O.2       1 <0>        -0.9535
      6 O2         -0.5723    0.0488   -2.4009 O.2       1 <0>        -0.9539
      7 C3          1.6818   -1.0594   -1.9051 C.ar      1 <0>        -0.7146
      8 C4          2.3226   -0.1081   -2.6772 C.ar      1 <0>         0.0193
      9 C5          3.6413   -0.2903   -3.0462 C.ar      1 <0>        -0.1688
     10 C6          4.3228   -1.4288   -2.6411 C.ar      1 <0>         0.1862
     11 C7          3.6778   -2.3816   -1.8661 C.ar      1 <0>        -0.2285
     12 C8          2.3605   -2.1922   -1.4953 C.ar      1 <0>         0.0216
     13 O3          5.6200   -1.6105   -3.0032 O.3       1 <0>        -0.3046
     14 C9          6.2587   -2.8059   -2.5502 C.3       1 <0>         0.0736
     15 C10         7.7035   -2.8342   -3.0529 C.3       1 <0>        -0.1211
     16 S2          8.5141   -4.3517   -2.4778 S.3       1 <0>        -0.0781
     17 C11        10.1469   -4.2362   -3.1301 C.ar      1 <0>        -0.0715
     18 C12        10.5177   -3.1313   -3.8870 C.ar      1 <0>        -0.1281
     19 C13        11.7982   -3.0436   -4.3964 C.ar      1 <0>        -0.0685
     20 C14        12.7116   -4.0543   -4.1539 C.ar      1 <0>        -0.0954
     21 C15        12.3454   -5.1558   -3.4005 C.ar      1 <0>        -0.0694
     22 C16        11.0681   -5.2470   -2.8839 C.ar      1 <0>        -0.0921
     23 Br1        14.4639   -3.9304   -4.8539 Br        1 <0>        -0.0425
     24 H1          1.0048    1.8381    0.0023 H         1 <0>         0.0565
     25 H2         -0.5450    1.8219   -0.8730 H         1 <0>         0.0851
     26 H3         -0.5280    1.8123    0.9069 H         1 <0>         0.0796
     27 H4         -0.9979   -0.9406    1.5900 H         1 <0>         0.0631
     28 H5          0.5496   -1.6879    1.1262 H         1 <0>         0.0713
     29 H6          0.5371   -0.1514    2.0246 H         1 <0>         0.0752
     30 H7          1.7917    0.7780   -2.9923 H         1 <0>         0.1485
     31 H8          4.1412    0.4527   -3.6499 H         1 <0>         0.1433
     32 H9          4.2061   -3.2687   -1.5494 H         1 <0>         0.1396
     33 H10         1.8592   -2.9315   -0.8883 H         1 <0>         0.1441
     34 H11         6.2526   -2.8305   -1.4605 H         1 <0>         0.0804
     35 H12         5.7226   -3.6729   -2.9362 H         1 <0>         0.0808
     36 H13         7.7095   -2.8096   -4.1426 H         1 <0>         0.1042
     37 H14         8.2395   -1.9672   -2.6669 H         1 <0>         0.1040
     38 H15         9.8052   -2.3423   -4.0769 H         1 <0>         0.1332
     39 H16        12.0869   -2.1854   -4.9850 H         1 <0>         0.1384
     40 H17        13.0607   -5.9430   -3.2130 H         1 <0>         0.1413
     41 H18        10.7843   -6.1048   -2.2923 H         1 <0>         0.1398
@<TRIPOS>BOND
     1    1    2 1
     2    1   24 1
     3    1   25 1
     4    1   26 1
     5    2    3 1
     6    2    4 1
     7    3   27 1
     8    3   28 1
     9    3   29 1
    10    4    5 2
    11    4    6 2
    12    4    7 1
    13    7   12 ar
    14    7    8 ar
    15    8    9 ar
    16    8   30 1
    17    9   10 ar
    18    9   31 1
    19   10   11 ar
    20   10   13 1
    21   11   12 ar
    22   11   32 1
    23   12   33 1
    24   13   14 1
    25   14   15 1
    26   14   34 1
    27   14   35 1
    28   15   16 1
    29   15   36 1
    30   15   37 1
    31   16   17 1
    32   17   22 ar
    33   17   18 ar
    34   18   19 ar
    35   18   38 1
    36   19   20 ar
    37   19   39 1
    38   20   21 ar
    39   20   23 1
    40   21   22 ar
    41   21   40 1
    42   22   41 1
@<TRIPOS>MOLECULE
ZINC05396862
   61    65     0     0     0
SMALL
USER_CHARGES
3-[(4-dimethylaminophenyl)methyl-oxo-BLAHyl]benzonitrile
@<TRIPOS>ATOM
      1 C1         -0.1323   -0.9801    6.2046 C.3       1 <0>         0.0825
      2 N1         -1.4458   -0.3917    5.9309 N.pl3     1 <0>        -0.6219
      3 C2         -2.6641   -1.1465    6.2345 C.3       1 <0>         0.0784
      4 C3         -1.5364    0.8888    5.3804 C.ar      1 <0>         0.2540
      5 C4         -0.3900    1.6525    5.2020 C.ar      1 <0>        -0.1973
      6 C5         -0.4832    2.9184    4.6579 C.ar      1 <0>        -0.0379
      7 C6         -1.7162    3.4258    4.2908 C.ar      1 <0>        -0.2360
      8 C7         -2.8601    2.6704    4.4723 C.ar      1 <0>        -0.0406
      9 C8         -2.7734    1.4015    5.0106 C.ar      1 <0>        -0.2011
     10 C9         -1.8140    4.8076    3.6974 C.3       1 <0>         0.0563
     11 C10        -1.5365    6.0559    1.6439 C.3       1 <0>        -0.0020
     12 C11        -1.3451    5.9667    0.1372 C.3       1 <0>        -0.1231
     13 H1         -1.3484    6.9808   -0.2623 H         1 <0>         0.1415
     14 C12        -2.4939    5.1890   -0.5112 C.3       1 <0>        -0.1297
     15 C13        -2.5485    3.8077    0.1508 C.3       1 <0>        -0.0650
     16 H2         -3.3193    3.1923   -0.3130 H         1 <0>         0.1497
     17 C14        -2.8312    4.0082    1.6489 C.3       1 <0>        -0.0012
     18 C15        -1.1949    3.1432    0.0289 C.2       1 <0>         0.1090
     19 C16        -1.1682    1.7826    0.0236 C.2       1 <0>        -0.1864
     20 C17         0.0451    1.0924    0.0263 C.2       1 <0>        -0.0061
     21 C18         1.2240    1.8215    0.0330 C.2       1 <0>        -0.1507
     22 C19         1.1503    3.2316    0.0156 C.2       1 <0>         0.5154
     23 O1          2.1761    3.8905    0.0557 O.2       1 <0>        -0.5133
     24 N2         -0.0495    3.8605   -0.0448 N.am      1 <0>        -0.5032
     25 C20        -0.0235    5.3125   -0.2276 C.3       1 <0>         0.0782
     26 C21         2.5365    1.1343    0.0575 C.ar      1 <0>        -0.0373
     27 C22         3.4065    1.2500   -1.0278 C.ar      1 <0>        -0.0586
     28 C23         4.6305    0.6110   -1.0073 C.ar      1 <0>        -0.1135
     29 C24         5.0028   -0.1459    0.0858 C.ar      1 <0>        -0.0598
     30 C25         4.1417   -0.2696    1.1788 C.ar      1 <0>        -0.0242
     31 C26         2.9065    0.3771    1.1651 C.ar      1 <0>        -0.0558
     32 C27         4.5287   -1.0543    2.3124 C.1       1 <0>         0.2463
     33 N3          4.8357   -1.6768    3.2117 N.1       1 <0>        -0.4037
     34 H3          0.1780   -0.7211    7.2169 H         1 <0>         0.0593
     35 H4         -0.1928   -2.0642    6.1093 H         1 <0>         0.0775
     36 H5          0.5951   -0.5926    5.4913 H         1 <0>         0.0717
     37 H6         -3.5332   -0.5902    5.8832 H         1 <0>         0.0810
     38 H7         -2.6260   -2.1144    5.7347 H         1 <0>         0.0672
     39 H8         -2.7397   -1.2964    7.3115 H         1 <0>         0.0641
     40 H9          0.5732    1.2570    5.4888 H         1 <0>         0.1325
     41 H10         0.4077    3.5129    4.5192 H         1 <0>         0.1251
     42 H11        -3.8220    3.0715    4.1889 H         1 <0>         0.1289
     43 H12        -3.6666    0.8103    5.1480 H         1 <0>         0.1360
     44 H13        -1.0140    5.4316    4.0957 H         1 <0>         0.1301
     45 H14        -2.7786    5.2458    3.9540 H         1 <0>         0.1361
     46 H15        -0.6699    6.5475    2.0860 H         1 <0>         0.1321
     47 H16        -2.4283    6.6453    1.8569 H         1 <0>         0.1414
     48 H17        -3.4347    5.7147   -0.3486 H         1 <0>         0.1039
     49 H18        -2.3099    5.0800   -1.5800 H         1 <0>         0.1037
     50 H19        -3.7392    4.5975    1.7767 H         1 <0>         0.1448
     51 H20        -2.9496    3.0394    2.1342 H         1 <0>         0.1382
     52 H21        -2.0964    1.2305    0.0213 H         1 <0>         0.1557
     53 H22         0.0649    0.0126    0.0188 H         1 <0>         0.1486
     54 H23         0.7631    5.7331    0.3989 H         1 <0>         0.1119
     55 H24         0.2032    5.5328   -1.2708 H         1 <0>         0.1077
     56 H25         3.1219    1.8410   -1.8857 H         1 <0>         0.1290
     57 H26         5.2997    0.7039   -1.8499 H         1 <0>         0.1407
     58 H27         5.9615   -0.6430    0.0960 H         1 <0>         0.1383
     59 H28         2.2385    0.2884    2.0091 H         1 <0>         0.1305
     60 N4         -1.6634    4.7069    2.2318 N.4       1 <0>        -0.3988
     61 H29        -0.8142    4.1699    2.0202 H         1 <0>         0.4200
@<TRIPOS>BOND
     1    1    2 1
     2    1   34 1
     3    1   35 1
     4    1   36 1
     5    2    3 1
     6    2    4 1
     7    3   37 1
     8    3   38 1
     9    3   39 1
    10    4    9 ar
    11    4    5 ar
    12    5    6 ar
    13    5   40 1
    14    6    7 ar
    15    6   41 1
    16    7    8 ar
    17    7   10 1
    18    8    9 ar
    19    8   42 1
    20    9   43 1
    21   10   44 1
    22   10   45 1
    23   10   60 1
    24   11   12 1
    25   11   46 1
    26   11   47 1
    27   11   60 1
    28   12   13 1
    29   12   25 1
    30   12   14 1
    31   14   15 1
    32   14   48 1
    33   14   49 1
    34   15   16 1
    35   15   17 1
    36   15   18 1
    37   17   50 1
    38   17   51 1
    39   17   60 1
    40   18   24 1
    41   18   19 2
    42   19   20 1
    43   19   52 1
    44   20   21 2
    45   20   53 1
    46   21   22 1
    47   21   26 1
    48   22   23 2
    49   22   24 am
    50   24   25 1
    51   25   54 1
    52   25   55 1
    53   26   31 ar
    54   26   27 ar
    55   27   28 ar
    56   27   56 1
    57   28   29 ar
    58   28   57 1
    59   29   30 ar
    60   29   58 1
    61   30   31 ar
    62   30   32 1
    63   31   59 1
    64   32   33 3
    65   60   61 1
@<TRIPOS>MOLECULE
ZINC12376843
   66    71     0     0     0
SMALL
USER_CHARGES
[4-(1-adamantyl)piperazin-1-yl]-[4-(benzenesulfonyl)phenyl]methanone
@<TRIPOS>ATOM
      1 C1         -1.6018   -0.1645    0.4554 C.ar      1 <0>        -0.0590
      2 C2         -0.6348   -1.1395    0.6137 C.ar      1 <0>        -0.1384
      3 C3          0.7023   -0.8149    0.4805 C.ar      1 <0>        -0.0236
      4 C4          1.0718    0.4824    0.1781 C.ar      1 <0>        -0.6605
      5 C5          0.1045    1.4562    0.0142 C.ar      1 <0>        -0.0220
      6 C6         -1.2324    1.1327    0.1526 C.ar      1 <0>        -0.1368
      7 S1          2.7757    0.8946    0.0011 S.o2      1 <0>         2.5758
      8 O1          2.8849    2.2883    0.2555 O.2       1 <0>        -0.9240
      9 O2          3.5068   -0.0743    0.7401 O.2       1 <0>        -0.9257
     10 C7          3.1958    0.6575   -1.6936 C.ar      1 <0>        -0.6316
     11 C8          3.6650   -0.5718   -2.1214 C.ar      1 <0>        -0.0226
     12 C9          3.9910   -0.7654   -3.4478 C.ar      1 <0>        -0.1198
     13 C10         3.8568    0.2852   -4.3568 C.ar      1 <0>        -0.0891
     14 C11         3.3879    1.5243   -3.9176 C.ar      1 <0>        -0.0801
     15 C12         3.0603    1.7031   -2.5895 C.ar      1 <0>        -0.0172
     16 C13         4.2092    0.0863   -5.7788 C.2       1 <0>         0.5697
     17 O3          4.7825    0.9656   -6.3916 O.2       1 <0>        -0.4932
     18 N1          3.8948   -1.0701   -6.3957 N.am      1 <0>        -0.6278
     19 C14         3.0966   -2.0982   -5.7108 C.3       1 <0>         0.0729
     20 C15         1.9291   -2.4931   -6.6290 C.3       1 <0>        -0.0243
     21 C16         3.1341   -1.7671   -8.6045 C.3       1 <0>        -0.0212
     22 C17         4.3458   -1.3398   -7.7694 C.3       1 <0>         0.0897
     23 C18         1.3943   -3.4406   -8.7921 C.3       1 <0>         0.0645
     24 C19         0.3617   -2.3510   -9.0880 C.3       1 <0>        -0.1216
     25 C20        -0.7455   -2.9249   -9.9743 C.3       1 <0>        -0.0798
     26 C21        -1.4255   -4.0892   -9.2512 C.3       1 <0>        -0.1191
     27 C22        -0.3929   -5.1788   -8.9554 C.3       1 <0>        -0.0790
     28 C23         0.7143   -4.6049   -8.0691 C.3       1 <0>        -0.1275
     29 C24         0.2124   -5.6779  -10.2689 C.3       1 <0>        -0.1195
     30 C25         0.8925   -4.5135  -10.9920 C.3       1 <0>        -0.0791
     31 C26        -0.1401   -3.4240  -11.2878 C.3       1 <0>        -0.1195
     32 C27         1.9997   -3.9397  -10.1056 C.3       1 <0>        -0.1276
     33 H1         -2.6463   -0.4171    0.5639 H         1 <0>         0.1348
     34 H2         -0.9237   -2.1540    0.8455 H         1 <0>         0.1364
     35 H3          1.4580   -1.5758    0.6083 H         1 <0>         0.1428
     36 H4          0.3931    2.4696   -0.2224 H         1 <0>         0.1438
     37 H5         -1.9881    1.8935    0.0245 H         1 <0>         0.1373
     38 H6          3.7723   -1.3827   -1.4162 H         1 <0>         0.1550
     39 H7          4.3533   -1.7267   -3.7813 H         1 <0>         0.1418
     40 H8          3.2814    2.3412   -4.6161 H         1 <0>         0.1474
     41 H9          2.6971    2.6613   -2.2484 H         1 <0>         0.1566
     42 H10         3.7186   -2.9702   -5.5087 H         1 <0>         0.1022
     43 H11         2.7084   -1.6970   -4.7746 H         1 <0>         0.1380
     44 H12         1.2547   -1.6454   -6.7496 H         1 <0>         0.1363
     45 H13         1.3870   -3.3293   -6.1875 H         1 <0>         0.1454
     46 H14         2.4428   -0.9294   -8.6975 H         1 <0>         0.1364
     47 H15         3.4662   -2.0763   -9.5955 H         1 <0>         0.1445
     48 H16         4.7838   -0.4369   -8.1949 H         1 <0>         0.1381
     49 H17         5.0881   -2.1379   -7.7609 H         1 <0>         0.0986
     50 H18        -0.0695   -1.9955   -8.1522 H         1 <0>         0.0834
     51 H19         0.8462   -1.5216   -9.6031 H         1 <0>         0.0848
     52 H20        -1.4812   -2.1487  -10.1850 H         1 <0>         0.0920
     53 H21        -2.2144   -4.4981   -9.8827 H         1 <0>         0.0805
     54 H22        -1.8568   -3.7337   -8.3155 H         1 <0>         0.0700
     55 H23        -0.8774   -6.0083   -8.4403 H         1 <0>         0.0927
     56 H24         1.4500   -5.3811   -7.8583 H         1 <0>         0.0867
     57 H25         0.2830   -4.2494   -7.1333 H         1 <0>         0.0867
     58 H26         0.9481   -6.4541  -10.0582 H         1 <0>         0.0713
     59 H27        -0.5764   -6.0867  -10.9004 H         1 <0>         0.0804
     60 H28         1.3237   -4.8691  -11.9277 H         1 <0>         0.0929
     61 H29        -0.9290   -3.8328  -11.9192 H         1 <0>         0.0806
     62 H30         0.3443   -2.5945  -11.8029 H         1 <0>         0.0706
     63 H31         2.4842   -3.1102  -10.6208 H         1 <0>         0.0868
     64 H32         2.7354   -4.7159   -9.8949 H         1 <0>         0.0866
     65 N2          2.4775   -2.9122   -7.9372 N.4       1 <0>        -0.3895
     66 H33         3.1730   -3.6521   -7.7849 H         1 <0>         0.4245
@<TRIPOS>BOND
     1    1    6 ar
     2    1    2 ar
     3    1   33 1
     4    2    3 ar
     5    2   34 1
     6    3    4 ar
     7    3   35 1
     8    4    5 ar
     9    4    7 1
    10    5    6 ar
    11    5   36 1
    12    6   37 1
    13    7    8 2
    14    7    9 2
    15    7   10 1
    16   10   15 ar
    17   10   11 ar
    18   11   12 ar
    19   11   38 1
    20   12   13 ar
    21   12   39 1
    22   13   14 ar
    23   13   16 1
    24   14   15 ar
    25   14   40 1
    26   15   41 1
    27   16   17 2
    28   16   18 am
    29   18   22 1
    30   18   19 1
    31   19   20 1
    32   19   42 1
    33   19   43 1
    34   20   44 1
    35   20   45 1
    36   20   65 1
    37   21   22 1
    38   21   46 1
    39   21   47 1
    40   21   65 1
    41   22   48 1
    42   22   49 1
    43   23   28 1
    44   23   32 1
    45   23   24 1
    46   23   65 1
    47   24   25 1
    48   24   50 1
    49   24   51 1
    50   25   31 1
    51   25   26 1
    52   25   52 1
    53   26   27 1
    54   26   53 1
    55   26   54 1
    56   27   28 1
    57   27   29 1
    58   27   55 1
    59   28   56 1
    60   28   57 1
    61   29   30 1
    62   29   58 1
    63   29   59 1
    64   30   31 1
    65   30   32 1
    66   30   60 1
    67   31   61 1
    68   31   62 1
    69   32   63 1
    70   32   64 1
    71   65   66 1
@<TRIPOS>MOLECULE
ZINC22038486
   61    65     0     0     0
SMALL
USER_CHARGES
3-[(4-benzhydrylpiperazin-1-yl)methyl]-5,6-dimethyl-thieno[3,2-e]pyrimidin-4-one
@<TRIPOS>ATOM
      1 C1          4.4087    6.0689   -5.6730 C.3       1 <0>        -0.0998
      2 C2          2.9764    6.2338   -6.1116 C.2       1 <0>        -0.0757
      3 C3          2.6870    6.5326   -7.3882 C.2       1 <0>        -0.1385
      4 S1          0.9062    6.6174   -7.3988 S.3       1 <0>         0.1962
      5 C4          0.6032    6.2493   -5.6897 C.2       1 <0>         0.0659
      6 C5          1.8937    6.0711   -5.1594 C.2       1 <0>        -0.2199
      7 C6          1.9514    5.7615   -3.7614 C.2       1 <0>         0.5557
      8 O1          3.0245    5.5937   -3.2082 O.2       1 <0>        -0.5045
      9 N1          0.8017    5.6545   -3.0698 N.am      1 <0>        -0.5580
     10 C7         -0.4025    5.8439   -3.6679 C.2       1 <0>         0.3486
     11 N2         -0.4881    6.1320   -4.9390 N.2       1 <0>        -0.4419
     12 C8          0.8507    5.3329   -1.6413 C.3       1 <0>         0.2109
     13 N3          0.8046    3.8751   -1.4658 N.4       1 <0>        -0.4200
     14 C9          1.4249    3.4780   -0.1941 C.3       1 <0>         0.0060
     15 C10         1.4282    1.9513   -0.0860 C.3       1 <0>         0.0238
     16 N4          0.0482    1.4537   -0.1736 N.3       1 <0>        -0.5303
     17 C11        -0.5721    1.8508   -1.4452 C.3       1 <0>         0.0258
     18 C12        -0.5754    3.3775   -1.5533 C.3       1 <0>        -0.0069
     19 C13         0.0021   -0.0041    0.0020 C.3       1 <0>         0.1798
     20 C14         0.6219   -0.3704    1.3259 C.ar      1 <0>        -0.0935
     21 C15         0.3198    0.3640    2.4574 C.ar      1 <0>        -0.0951
     22 C16         0.8846    0.0250    3.6727 C.ar      1 <0>        -0.1211
     23 C17         1.7593   -1.0423    3.7546 C.ar      1 <0>        -0.1089
     24 C18         2.0658   -1.7732    2.6220 C.ar      1 <0>        -0.1152
     25 C19         1.4969   -1.4374    1.4077 C.ar      1 <0>        -0.1097
     26 C20        -1.4313   -0.4685   -0.0272 C.ar      1 <0>        -0.0933
     27 C21        -2.3975    0.2265    0.6759 C.ar      1 <0>        -0.0939
     28 C22        -3.7131   -0.1967    0.6452 C.ar      1 <0>        -0.1215
     29 C23        -4.0608   -1.3206   -0.0806 C.ar      1 <0>        -0.1089
     30 C24        -3.0937   -2.0189   -0.7791 C.ar      1 <0>        -0.1156
     31 C25        -1.7789   -1.5927   -0.7526 C.ar      1 <0>        -0.1098
     32 C26         3.6392    6.7457   -8.5366 C.3       1 <0>        -0.0801
     33 H1          5.0762    6.2302   -6.5323 H         1 <0>         0.0742
     34 H2          4.5569    5.0525   -5.2793 H         1 <0>         0.0737
     35 H3          4.6385    6.8037   -4.8873 H         1 <0>         0.0762
     36 H4         -1.3056    5.7552   -3.0822 H         1 <0>         0.2220
     37 H5          1.7831    5.7250   -1.2090 H         1 <0>         0.1687
     38 H6         -0.0104    5.7909   -1.1326 H         1 <0>         0.1661
     39 H7          2.4590    3.8513   -0.1582 H         1 <0>         0.1417
     40 H8          0.8519    3.9046    0.6424 H         1 <0>         0.1428
     41 H9          2.0249    1.5269   -0.9069 H         1 <0>         0.0622
     42 H10         1.8662    1.6529    0.8779 H         1 <0>         0.1318
     43 H11         0.0010    1.4243   -2.2817 H         1 <0>         0.0608
     44 H12        -1.6062    1.4775   -1.4811 H         1 <0>         0.1307
     45 H13        -1.1713    3.8029   -0.7324 H         1 <0>         0.1459
     46 H14        -1.0127    3.6769   -2.5172 H         1 <0>         0.1294
     47 H15         0.5669   -0.4655   -0.8215 H         1 <0>         0.0663
     48 H16        -0.3604    1.2004    2.3926 H         1 <0>         0.1271
     49 H17         0.6454    0.5963    4.5574 H         1 <0>         0.1249
     50 H18         2.2035   -1.3049    4.7033 H         1 <0>         0.1256
     51 H19         2.7495   -2.6069    2.6859 H         1 <0>         0.1263
     52 H20         1.7364   -2.0085    0.5229 H         1 <0>         0.1203
     53 H21        -2.1251    1.1023    1.2462 H         1 <0>         0.1270
     54 H22        -4.4687    0.3486    1.1912 H         1 <0>         0.1248
     55 H23        -5.0881   -1.6534   -0.1016 H         1 <0>         0.1256
     56 H24        -3.3653   -2.8972   -1.3458 H         1 <0>         0.1261
     57 H25        -1.0233   -2.1382   -1.2983 H         1 <0>         0.1202
     58 H26         3.0684    6.9758   -9.4483 H         1 <0>         0.0834
     59 H27         4.2319    5.8328   -8.6957 H         1 <0>         0.0920
     60 H28         4.3123    7.5840   -8.3040 H         1 <0>         0.0926
     61 H29         1.3827    3.4189   -2.2829 H         1 <0>         0.4410
@<TRIPOS>BOND
     1    1    2 1
     2    1   33 1
     3    1   34 1
     4    1   35 1
     5    2    6 1
     6    2    3 2
     7    3    4 1
     8    3   32 1
     9    4    5 1
    10    5   11 1
    11    5    6 2
    12    6    7 1
    13    7    8 2
    14    7    9 am
    15    9   10 1
    16    9   12 1
    17   10   11 2
    18   10   36 1
    19   12   13 1
    20   12   37 1
    21   12   38 1
    22   13   18 1
    23   13   14 1
    24   13   61 1
    25   14   15 1
    26   14   39 1
    27   14   40 1
    28   15   16 1
    29   15   41 1
    30   15   42 1
    31   16   17 1
    32   16   19 1
    33   17   18 1
    34   17   43 1
    35   17   44 1
    36   18   45 1
    37   18   46 1
    38   19   20 1
    39   19   26 1
    40   19   47 1
    41   20   25 ar
    42   20   21 ar
    43   21   22 ar
    44   21   48 1
    45   22   23 ar
    46   22   49 1
    47   23   24 ar
    48   23   50 1
    49   24   25 ar
    50   24   51 1
    51   25   52 1
    52   26   31 ar
    53   26   27 ar
    54   27   28 ar
    55   27   53 1
    56   28   29 ar
    57   28   54 1
    58   29   30 ar
    59   29   55 1
    60   30   31 ar
    61   30   56 1
    62   31   57 1
    63   32   58 1
    64   32   59 1
    65   32   60 1
@<TRIPOS>MOLECULE
ZINC39224059
   50    54     0     0     0
SMALL
USER_CHARGES

@<TRIPOS>ATOM
      1 C1         -0.0164    1.3563    0.0095 C.ar      1 <0>        -0.1593
      2 C2          1.1627    2.0961    0.0022 C.ar      1 <0>         0.0771
      3 C3          2.3863    1.4974   -0.0069 C.ar      1 <0>        -0.2086
      4 C4          2.4829    0.0958   -0.0115 C.ar      1 <0>         0.3412
      5 N1          3.6853   -0.4915    0.0035 N.am      1 <0>        -0.6024
      6 C5          3.8648   -1.7980   -0.0379 C.2       1 <0>         0.5424
      7 O1          4.9901   -2.2612   -0.0125 O.2       1 <0>        -0.4257
      8 C6          2.6678   -2.7169   -0.1167 C.3       1 <0>        -0.1568
      9 H1          2.7380   -3.2954   -1.0378 H         1 <0>         0.1971
     10 C7          2.7446   -3.6874    1.0651 C.3       1 <0>        -0.0277
     11 H2          3.6781   -4.2481    1.0173 H         1 <0>         0.1523
     12 C8          1.5578   -4.6568    0.9867 C.3       1 <0>        -0.1596
     13 C9          0.2758   -3.8567    0.9161 C.2       1 <0>         0.4838
     14 O2         -0.6576   -4.1089    1.6406 O.2       1 <0>        -0.3579
     15 O3          0.2085   -2.8452    0.0119 O.3       1 <0>        -0.2790
     16 C10         1.2984   -2.0673   -0.0619 C.2       1 <0>         0.3737
     17 C11         1.2381   -0.6839   -0.0172 C.ar      1 <0>        -0.1982
     18 C12         0.0021   -0.0041    0.0020 C.ar      1 <0>         0.0166
     19 C13         2.6850   -2.9150    2.3577 C.ar      1 <0>        -0.1795
     20 C14         1.5804   -2.1345    2.6449 C.ar      1 <0>        -0.1050
     21 C15         1.5236   -1.4251    3.8290 C.ar      1 <0>        -0.1311
     22 C16         2.5757   -1.4967    4.7304 C.ar      1 <0>         0.1582
     23 C17         3.6827   -2.2809    4.4400 C.ar      1 <0>        -0.1979
     24 C18         3.7324   -2.9925    3.2569 C.ar      1 <0>        -0.0394
     25 O4          2.5223   -0.7994    5.8956 O.3       1 <0>        -0.3001
     26 C19         3.6415   -0.9205    6.7760 C.3       1 <0>         0.1010
     27 C20         3.4053   -0.0836    8.0067 C.ar      1 <0>        -0.0779
     28 C21         3.8144    1.2369    8.0335 C.ar      1 <0>        -0.1055
     29 C22         3.5984    2.0058    9.1617 C.ar      1 <0>        -0.0903
     30 C23         2.9735    1.4551   10.2647 C.ar      1 <0>        -0.1371
     31 C24         2.5635    0.1330   10.2391 C.ar      1 <0>         0.1011
     32 C25         2.7749   -0.6345    9.1060 C.ar      1 <0>        -0.1293
     33 F1          1.9530   -0.4064   11.3168 F         1 <0>        -0.1328
     34 H3         -0.9649    1.8725    0.0259 H         1 <0>         0.1653
     35 H4          1.1058    3.1746    0.0034 H         1 <0>         0.1686
     36 H5          3.2823    2.1004   -0.0109 H         1 <0>         0.1727
     37 H6          1.6509   -5.2765    0.0948 H         1 <0>         0.1450
     38 H7          1.5445   -5.2901    1.8737 H         1 <0>         0.1506
     39 H8         -0.9238   -0.5601    0.0107 H         1 <0>         0.1700
     40 H9          0.7616   -2.0791    1.9429 H         1 <0>         0.1035
     41 H10         0.6609   -0.8150    4.0526 H         1 <0>         0.1413
     42 H11         4.5030   -2.3383    5.1401 H         1 <0>         0.1429
     43 H12         4.5920   -3.6066    3.0324 H         1 <0>         0.1413
     44 H13         3.7654   -1.9643    7.0646 H         1 <0>         0.0808
     45 H14         4.5420   -0.5744    6.2686 H         1 <0>         0.0811
     46 H15         4.3033    1.6678    7.1723 H         1 <0>         0.1313
     47 H16         3.9184    3.0371    9.1814 H         1 <0>         0.1402
     48 H17         2.8055    2.0558   11.1464 H         1 <0>         0.1425
     49 H18         2.4515   -1.6647    9.0833 H         1 <0>         0.1383
     50 H19         4.4706    0.0763    0.0472 H         1 <0>         0.4415
@<TRIPOS>BOND
     1    1   18 ar
     2    1    2 ar
     3    1   34 1
     4    2    3 ar
     5    2   35 1
     6    3    4 ar
     7    3   36 1
     8    4   17 ar
     9    4    5 2
    10    5    6 am
    11    5   50 1
    12    6    7 2
    13    6    8 1
    14    8    9 1
    15    8   16 1
    16    8   10 1
    17   10   11 1
    18   10   12 1
    19   10   19 1
    20   12   13 1
    21   12   37 1
    22   12   38 1
    23   13   14 2
    24   13   15 1
    25   15   16 1
    26   16   17 2
    27   17   18 ar
    28   18   39 1
    29   19   24 ar
    30   19   20 ar
    31   20   21 ar
    32   20   40 1
    33   21   22 ar
    34   21   41 1
    35   22   23 ar
    36   22   25 1
    37   23   24 ar
    38   23   42 1
    39   24   43 1
    40   25   26 1
    41   26   27 1
    42   26   44 1
    43   26   45 1
    44   27   32 ar
    45   27   28 ar
    46   28   29 ar
    47   28   46 1
    48   29   30 ar
    49   29   47 1
    50   30   31 ar
    51   30   48 1
    52   31   32 ar
    53   31   33 1
    54   32   49 1
@<TRIPOS>MOLECULE
ZINC38990334
   37    39     0     0     0
SMALL
USER_CHARGES

@<TRIPOS>ATOM
      1 C1         -0.0137    1.4260   -0.0211 C.3       1 <0>         0.0152
      2 O1          0.0043   -0.0028   -0.0131 O.3       1 <0>        -0.2932
      3 C2         -1.1978   -0.6345    0.0123 C.ar      1 <0>         0.1982
      4 C3         -2.3705    0.1026    0.0234 C.ar      1 <0>        -0.2111
      5 C4         -3.5935   -0.5407    0.0493 C.ar      1 <0>         0.0014
      6 C5         -3.6571   -1.9245    0.0637 C.ar      1 <0>        -0.1394
      7 C6         -2.4987   -2.6739    0.0524 C.ar      1 <0>         0.0083
      8 C7         -1.2567   -2.0351    0.0214 C.ar      1 <0>        -0.1249
      9 C8         -0.0156   -2.8288    0.0041 C.2       1 <0>         0.1854
     10 N1          1.1373   -2.2310   -0.0198 N.2       1 <0>        -0.2079
     11 N2          2.3172   -2.9809    0.0712 N.pl3     1 <0>        -0.3455
     12 C9          3.6993   -2.4791    0.1860 C.3       1 <0>         0.2649
     13 H1          3.8197   -1.8950    1.0983 H         1 <0>         0.2374
     14 N3          4.5143   -3.7022    0.2446 N.2       1 <0>         0.0461
     15 N4          3.7553   -4.6725    0.1774 N.pl3     1 <0>        -0.1474
     16 C10         2.4437   -4.3262    0.0793 C.2       1 <0>         0.2538
     17 S1          1.1423   -5.4339   -0.0234 S.2       1 <0>        -0.2367
     18 C11         4.0643   -1.6538   -1.0209 C.ar      1 <0>        -0.1497
     19 C12         3.0874   -0.9429   -1.6928 C.ar      1 <0>        -0.0457
     20 C13         3.4210   -0.1854   -2.7994 C.ar      1 <0>        -0.1484
     21 C14         4.7344   -0.1385   -3.2352 C.ar      1 <0>         0.1500
     22 C15         5.7121   -0.8509   -2.5615 C.ar      1 <0>        -0.1480
     23 C16         5.3769   -1.6036   -1.4520 C.ar      1 <0>        -0.0534
     24 F1          5.0617    0.6014   -4.3171 F         1 <0>        -0.1180
     25 Br1        -5.3382   -2.7897    0.0997 Br        1 <0>        -0.0183
     26 H2          1.0091    1.8022   -0.0418 H         1 <0>         0.1098
     27 H3         -0.5481    1.7778   -0.9036 H         1 <0>         0.0671
     28 H4         -0.5159    1.7880    0.8761 H         1 <0>         0.0671
     29 H5         -2.3291    1.1817    0.0123 H         1 <0>         0.1519
     30 H6         -4.5049    0.0388    0.0586 H         1 <0>         0.1506
     31 H7         -2.5521   -3.7525    0.0637 H         1 <0>         0.1562
     32 H8         -0.0645   -3.9076    0.0112 H         1 <0>         0.1994
     33 H9          2.0629   -0.9799   -1.3529 H         1 <0>         0.1650
     34 H10         2.6576    0.3696   -3.3243 H         1 <0>         0.1540
     35 H11         6.7368   -0.8153   -2.9007 H         1 <0>         0.1573
     36 H12         6.1401   -2.1558   -0.9237 H         1 <0>         0.1504
     37 H13         4.0635   -5.5920    0.1963 H         1 <0>         0.4980
@<TRIPOS>BOND
     1    1    2 1
     2    1   26 1
     3    1   27 1
     4    1   28 1
     5    2    3 1
     6    3    8 ar
     7    3    4 ar
     8    4    5 ar
     9    4   29 1
    10    5    6 ar
    11    5   30 1
    12    6    7 ar
    13    6   25 1
    14    7    8 ar
    15    7   31 1
    16    8    9 1
    17    9   10 2
    18    9   32 1
    19   10   11 1
    20   11   16 1
    21   11   12 1
    22   12   13 1
    23   12   14 1
    24   12   18 1
    25   14   15 2
    26   15   16 1
    27   15   37 1
    28   16   17 2
    29   18   23 ar
    30   18   19 ar
    31   19   20 ar
    32   19   33 1
    33   20   21 ar
    34   20   34 1
    35   21   22 ar
    36   21   24 1
    37   22   23 ar
    38   22   35 1
    39   23   36 1
@<TRIPOS>MOLECULE
ZINC12660502
   68    72     0     0     0
SMALL
USER_CHARGES
(3R,3aR,8aR,9aR)-3-[[4-(2-methoxyphenyl)piperazin-1-yl]methyl]-5,8a-dimethyl-3,3a,4,6,7,8,9,9a-octahydrobenzo[f]benzofuran-2-one
@<TRIPOS>ATOM
      1 C1          2.4914   -1.5574    5.4932 C.3       1 <0>        -0.1288
      2 C2          2.6886   -0.2918    6.2870 C.2       1 <0>        -0.0979
      3 C3          2.0799    0.7884    5.8964 C.2       1 <0>        -0.1256
      4 C4          1.2106    0.7026    4.6645 C.3       1 <0>        -0.0980
      5 C5         -0.1866    1.2580    4.9547 C.3       1 <0>        -0.1236
      6 H1         -0.8384    0.5282    5.4350 H         1 <0>         0.1291
      7 C6         -0.1227    2.5966    5.7133 C.3       1 <0>         0.0963
      8 H2         -1.1334    2.8610    6.0243 H         1 <0>         0.0949
      9 C7          0.7601    2.5782    6.9320 C.3       1 <0>        -0.1074
     10 C8          2.1805    2.1144    6.5974 C.3       1 <0>        -0.0092
     11 C9          3.0122    2.0530    7.8674 C.3       1 <0>        -0.1120
     12 C10         4.1678    1.0648    7.7187 C.3       1 <0>        -0.1195
     13 C11         3.5804   -0.3332    7.4958 C.3       1 <0>        -0.0884
     14 C12         2.8164    3.1205    5.6361 C.3       1 <0>        -0.1492
     15 O1          0.3041    3.5460    4.6979 O.3       1 <0>        -0.3137
     16 C13        -0.3712    3.2400    3.5661 C.2       1 <0>         0.4869
     17 O2         -0.6390    4.0157    2.6792 O.2       1 <0>        -0.4163
     18 C14        -0.7379    1.7677    3.5868 C.3       1 <0>        -0.1902
     19 H3         -1.8195    1.6408    3.5399 H         1 <0>         0.1428
     20 C15        -0.0625    1.0307    2.4286 C.3       1 <0>         0.0052
     21 C16         0.2216   -1.1393    1.3916 C.3       1 <0>         0.0003
     22 C17        -0.0133   -2.6395    1.5824 C.3       1 <0>         0.0301
     23 N1         -1.4546   -2.8939    1.7160 N.pl3     1 <0>        -0.4793
     24 C18        -2.0112   -2.1637    2.8634 C.3       1 <0>         0.0314
     25 C19        -1.7762   -0.6634    2.6726 C.3       1 <0>        -0.0068
     26 C20        -1.7143   -4.2653    1.8204 C.ar      1 <0>         0.0236
     27 C21        -1.1708   -4.9986    2.8651 C.ar      1 <0>        -0.1059
     28 C22        -1.4288   -6.3528    2.9659 C.ar      1 <0>        -0.1458
     29 C23        -2.2277   -6.9795    2.0276 C.ar      1 <0>        -0.0617
     30 C24        -2.7728   -6.2549    0.9835 C.ar      1 <0>        -0.2026
     31 C25        -2.5239   -4.8965    0.8785 C.ar      1 <0>         0.1653
     32 O3         -3.0640   -4.1815   -0.1447 O.3       1 <0>        -0.2991
     33 C26        -3.8839   -4.8948   -1.0727 C.3       1 <0>         0.0203
     34 H4          3.0650   -2.3649    5.9482 H         1 <0>         0.0731
     35 H5          1.4338   -1.8215    5.4873 H         1 <0>         0.0590
     36 H6          2.8326   -1.4013    4.4698 H         1 <0>         0.0631
     37 H7          1.1255   -0.3302    4.3265 H         1 <0>         0.0643
     38 H8          1.6805    1.2984    3.8819 H         1 <0>         0.0895
     39 H9          0.8043    3.5823    7.3537 H         1 <0>         0.0920
     40 H10         0.3306    1.9024    7.6715 H         1 <0>         0.0966
     41 H11         3.4136    3.0437    8.0805 H         1 <0>         0.0735
     42 H12         2.3774    1.7392    8.6961 H         1 <0>         0.0668
     43 H13         4.7833    1.3452    6.8639 H         1 <0>         0.0667
     44 H14         4.7734    1.0686    8.6250 H         1 <0>         0.0732
     45 H15         4.3874   -1.0471    7.3308 H         1 <0>         0.0763
     46 H16         2.9993   -0.6294    8.3691 H         1 <0>         0.0807
     47 H17         2.8508    4.1024    6.1082 H         1 <0>         0.0627
     48 H18         3.8288    2.7993    5.3914 H         1 <0>         0.0557
     49 H19         2.2225    3.1767    4.7238 H         1 <0>         0.0668
     50 H20         1.0134    1.2007    2.4679 H         1 <0>         0.1418
     51 H21        -0.4550    1.4035    1.4825 H         1 <0>         0.1498
     52 H22         1.2918   -0.9449    1.3212 H         1 <0>         0.1362
     53 H23        -0.2691   -0.8079    0.4764 H         1 <0>         0.1455
     54 H24         0.3730   -3.1809    0.7188 H         1 <0>         0.1267
     55 H25         0.5004   -2.9765    2.4828 H         1 <0>         0.0615
     56 H26        -3.0814   -2.3581    2.9337 H         1 <0>         0.1255
     57 H27        -1.5204   -2.4955    3.7784 H         1 <0>         0.0611
     58 H28        -2.2899   -0.3265    1.7722 H         1 <0>         0.1460
     59 H29        -2.1628   -0.1220    3.5360 H         1 <0>         0.1338
     60 H30        -0.5467   -4.5114    3.5996 H         1 <0>         0.1234
     61 H31        -1.0055   -6.9226    3.7799 H         1 <0>         0.1307
     62 H32        -2.4269   -8.0377    2.1105 H         1 <0>         0.1340
     63 H33        -3.3965   -6.7476    0.2523 H         1 <0>         0.1383
     64 H34        -3.2975   -5.6835   -1.5440 H         1 <0>         0.0592
     65 H35        -4.7296   -5.3364   -0.5456 H         1 <0>         0.0590
     66 H36        -4.2499   -4.2085   -1.8363 H         1 <0>         0.1056
     67 N2         -0.3226   -0.4188    2.5616 N.4       1 <0>        -0.4010
     68 H37         0.1398   -0.7640    3.4109 H         1 <0>         0.4178
@<TRIPOS>BOND
     1    1    2 1
     2    1   34 1
     3    1   35 1
     4    1   36 1
     5    2   13 1
     6    2    3 2
     7    3   10 1
     8    3    4 1
     9    4    5 1
    10    4   37 1
    11    4   38 1
    12    5    6 1
    13    5   18 1
    14    5    7 1
    15    7    8 1
    16    7    9 1
    17    7   15 1
    18    9   10 1
    19    9   39 1
    20    9   40 1
    21   10   11 1
    22   10   14 1
    23   11   12 1
    24   11   41 1
    25   11   42 1
    26   12   13 1
    27   12   43 1
    28   12   44 1
    29   13   45 1
    30   13   46 1
    31   14   47 1
    32   14   48 1
    33   14   49 1
    34   15   16 1
    35   16   17 2
    36   16   18 1
    37   18   19 1
    38   18   20 1
    39   20   50 1
    40   20   51 1
    41   20   67 1
    42   21   22 1
    43   21   52 1
    44   21   53 1
    45   21   67 1
    46   22   23 1
    47   22   54 1
    48   22   55 1
    49   23   24 1
    50   23   26 1
    51   24   25 1
    52   24   56 1
    53   24   57 1
    54   25   58 1
    55   25   59 1
    56   25   67 1
    57   26   31 ar
    58   26   27 ar
    59   27   28 ar
    60   27   60 1
    61   28   29 ar
    62   28   61 1
    63   29   30 ar
    64   29   62 1
    65   30   31 ar
    66   30   63 1
    67   31   32 1
    68   32   33 1
    69   33   64 1
    70   33   65 1
    71   33   66 1
    72   67   68 1
@<TRIPOS>MOLECULE
ZINC34748498
   60    63     0     0     0
SMALL
USER_CHARGES

@<TRIPOS>ATOM
      1 C1          3.5171    2.0105   -2.4288 C.3       1 <0>        -0.1678
      2 C2          2.2348    1.6928   -1.6570 C.3       1 <0>         0.0891
      3 N1          1.7731    0.3479   -2.0097 N.am      1 <0>        -0.5237
      4 C3          1.0174    0.1770   -3.1099 C.2       1 <0>         0.5561
      5 O1          0.7188    1.1306   -3.8082 O.2       1 <0>        -0.5057
      6 C4          0.5693   -1.1385   -3.4495 C.2       1 <0>        -0.2265
      7 C5         -0.2452   -1.5716   -4.5718 C.2       1 <0>        -0.0665
      8 C6         -0.5489   -2.8718   -4.6975 C.2       1 <0>        -0.1482
      9 S1          0.2515   -3.6217   -3.2921 S.3       1 <0>         0.1528
     10 C7          0.9713   -2.1664   -2.5761 C.2       1 <0>         0.0904
     11 N2          1.7194   -1.9282   -1.5053 N.2       1 <0>        -0.4769
     12 C8          2.1221   -0.7075   -1.2198 C.2       1 <0>         0.6163
     13 N3          2.8996   -0.4936   -0.1089 N.pl3     1 <0>        -0.6512
     14 C9          2.2892   -0.1841    1.1933 C.3       1 <0>         0.1183
     15 C10         2.8868   -1.1240    2.2456 C.3       1 <0>        -0.0220
     16 N4          4.3510   -1.0162    2.2216 N.4       1 <0>        -0.3827
     17 C11         4.8663   -1.4897    0.9307 C.3       1 <0>        -0.0229
     18 C12         4.3665   -0.5734   -0.1854 C.3       1 <0>         0.1205
     19 C13         4.9182   -1.8333    3.3027 C.3       1 <0>         0.0453
     20 C14         6.4101   -1.6281    3.3576 C.ar      1 <0>        -0.1721
     21 C15         7.2573   -2.5574    2.7831 C.ar      1 <0>        -0.0820
     22 C16         8.6257   -2.3692    2.8335 C.ar      1 <0>        -0.1225
     23 C17         9.1472   -1.2514    3.4581 C.ar      1 <0>        -0.0388
     24 C18         8.3002   -0.3220    4.0317 C.ar      1 <0>        -0.1181
     25 C19         6.9313   -0.5080    3.9775 C.ar      1 <0>        -0.0568
     26 C20         6.0076    0.5080    4.5983 C.3       1 <0>        -0.1255
     27 C21        10.6392   -1.0467    3.5139 C.3       1 <0>        -0.1316
     28 C22        -1.3710   -3.5392   -5.7698 C.3       1 <0>        -0.0741
     29 C23        -0.7434   -0.5713   -5.5829 C.3       1 <0>        -0.1079
     30 H1          4.2864    1.2829   -2.1705 H         1 <0>         0.0545
     31 H2          3.3178    1.9639   -3.4994 H         1 <0>         0.0701
     32 H3          3.8606    3.0111   -2.1664 H         1 <0>         0.0822
     33 H4          2.4342    1.7394   -0.5864 H         1 <0>         0.0917
     34 H5          1.4655    2.4204   -1.9153 H         1 <0>         0.1030
     35 H6          2.5039    0.8502    1.4619 H         1 <0>         0.0935
     36 H7          1.2111   -0.3349    1.1376 H         1 <0>         0.1229
     37 H8          2.5180   -0.8458    3.2328 H         1 <0>         0.1439
     38 H9          2.5943   -2.1504    2.0241 H         1 <0>         0.1407
     39 H10         5.9561   -1.4809    0.9491 H         1 <0>         0.1426
     40 H11         4.5139   -2.5050    0.7491 H         1 <0>         0.1391
     41 H12         4.6611   -0.9815   -1.1523 H         1 <0>         0.1209
     42 H13         4.7945    0.4209   -0.0584 H         1 <0>         0.0927
     43 H14         4.4753   -1.5361    4.2533 H         1 <0>         0.1375
     44 H15         4.7028   -2.8850    3.1144 H         1 <0>         0.1370
     45 H16         6.8499   -3.4305    2.2952 H         1 <0>         0.1324
     46 H17         9.2875   -3.0955    2.3853 H         1 <0>         0.1355
     47 H18         8.7076    0.5510    4.5199 H         1 <0>         0.1350
     48 H19         5.8222    0.2425    5.6391 H         1 <0>         0.0898
     49 H20         6.4687    1.4946    4.5516 H         1 <0>         0.0856
     50 H21         5.0638    0.5219    4.0532 H         1 <0>         0.0465
     51 H22        10.9616   -0.4832    2.6383 H         1 <0>         0.0827
     52 H23        10.8965   -0.4934    4.4171 H         1 <0>         0.0761
     53 H24        11.1386   -2.0155    3.5266 H         1 <0>         0.0767
     54 H25        -0.7204   -3.8442   -6.5894 H         1 <0>         0.0861
     55 H26        -1.8672   -4.4162   -5.3542 H         1 <0>         0.0795
     56 H27        -2.1201   -2.8400   -6.1414 H         1 <0>         0.0893
     57 H28        -0.0144   -0.4739   -6.3874 H         1 <0>         0.0745
     58 H29        -1.6939   -0.9121   -5.9933 H         1 <0>         0.0713
     59 H30        -0.8822    0.3957   -5.0994 H         1 <0>         0.0828
     60 H31         4.6183   -0.0525    2.3560 H         1 <0>         0.4185
@<TRIPOS>BOND
     1    1    2 1
     2    1   30 1
     3    1   31 1
     4    1   32 1
     5    2    3 1
     6    2   33 1
     7    2   34 1
     8    3   12 1
     9    3    4 am
    10    4    5 2
    11    4    6 1
    12    6   10 2
    13    6    7 1
    14    7    8 2
    15    7   29 1
    16    8    9 1
    17    8   28 1
    18    9   10 1
    19   10   11 1
    20   11   12 2
    21   12   13 1
    22   13   18 1
    23   13   14 1
    24   14   15 1
    25   14   35 1
    26   14   36 1
    27   15   16 1
    28   15   37 1
    29   15   38 1
    30   16   17 1
    31   16   19 1
    32   16   60 1
    33   17   18 1
    34   17   39 1
    35   17   40 1
    36   18   41 1
    37   18   42 1
    38   19   20 1
    39   19   43 1
    40   19   44 1
    41   20   25 ar
    42   20   21 ar
    43   21   22 ar
    44   21   45 1
    45   22   23 ar
    46   22   46 1
    47   23   24 ar
    48   23   27 1
    49   24   25 ar
    50   24   47 1
    51   25   26 1
    52   26   48 1
    53   26   49 1
    54   26   50 1
    55   27   51 1
    56   27   52 1
    57   27   53 1
    58   28   54 1
    59   28   55 1
    60   28   56 1
    61   29   57 1
    62   29   58 1
    63   29   59 1
@<TRIPOS>MOLECULE
ZINC39698960
   37    40     0     0     0
SMALL
USER_CHARGES

@<TRIPOS>ATOM
      1 C1         -0.0169    1.3914    0.0097 C.ar      1 <0>        -0.0928
      2 C2          1.1699    2.0945    0.0021 C.ar      1 <0>        -0.0850
      3 C3          2.3781    1.4186   -0.0135 C.ar      1 <0>        -0.0799
      4 C4          2.4033    0.0344   -0.0216 C.ar      1 <0>        -0.0860
      5 C5          1.2231   -0.6797   -0.0142 C.ar      1 <0>        -0.0829
      6 C6          0.0021   -0.0041    0.0020 C.ar      1 <0>        -0.0030
      7 C7         -1.2664   -0.7636    0.0105 C.2       1 <0>        -0.0712
      8 C8         -1.4506   -2.1151    0.0107 C.2       1 <0>        -0.1430
      9 C9         -2.7448   -2.6428    0.0204 C.2       1 <0>         0.1652
     10 C10        -3.7877   -1.6979    0.0295 C.2       1 <0>        -0.3164
     11 S1         -2.9395   -0.1408    0.0311 S.3       1 <0>         0.2001
     12 C11        -5.1256   -2.0935    0.0396 C.2       1 <0>         0.5844
     13 O1         -6.0233   -1.2679    0.0470 O.2       1 <0>        -0.5186
     14 N1         -5.3997   -3.4201    0.0405 N.am      1 <0>        -0.5284
     15 C12        -4.3749   -4.3128    0.0316 C.2       1 <0>         0.3833
     16 N2         -3.1291   -3.9624    0.0226 N.2       1 <0>        -0.5045
     17 C13        -6.7879   -3.8882    0.0514 C.3       1 <0>         0.0658
     18 C14        -7.2755   -4.0472   -1.3656 C.2       1 <0>         0.4173
     19 O2         -6.5361   -3.7944   -2.2936 O.2       1 <0>        -0.4192
     20 C15        -8.6412   -4.5067   -1.6223 C.2       1 <0>         0.0395
     21 N3         -9.5461   -4.8092   -0.7342 N.2       1 <0>        -0.4055
     22 C16       -10.7062   -5.2001   -1.2657 C.2       1 <0>        -0.0154
     23 C17       -10.6851   -5.1955   -2.6037 C.2       1 <0>        -0.1487
     24 C18        -9.2920   -4.7210   -2.9757 C.3       1 <0>        -0.1301
     25 Br1         4.0005    2.3901   -0.0244 Br        1 <0>        -0.0399
     26 H1         -0.9587    1.9197    0.0260 H         1 <0>         0.1363
     27 H2          1.1565    3.1744    0.0081 H         1 <0>         0.1418
     28 H3          3.3488   -0.4874   -0.0342 H         1 <0>         0.1422
     29 H4          1.2440   -1.7595   -0.0213 H         1 <0>         0.1409
     30 H5         -0.5971   -2.7769    0.0030 H         1 <0>         0.1527
     31 H6         -4.6119   -5.3665    0.0328 H         1 <0>         0.2072
     32 H7         -6.8436   -4.8482    0.5647 H         1 <0>         0.1426
     33 H8         -7.4122   -3.1615    0.5711 H         1 <0>         0.1443
     34 H9        -11.5669   -5.4886   -0.6805 H         1 <0>         0.1681
     35 H10       -11.4873   -5.4667   -3.2741 H         1 <0>         0.1644
     36 H11        -9.3364   -3.7868   -3.5355 H         1 <0>         0.1373
     37 H12        -8.7630   -5.4875   -3.5420 H         1 <0>         0.1371
@<TRIPOS>BOND
     1    1    6 ar
     2    1    2 ar
     3    1   26 1
     4    2    3 ar
     5    2   27 1
     6    3    4 ar
     7    3   25 1
     8    4    5 ar
     9    4   28 1
    10    5    6 ar
    11    5   29 1
    12    6    7 1
    13    7   11 1
    14    7    8 2
    15    8    9 1
    16    8   30 1
    17    9   16 1
    18    9   10 2
    19   10   11 1
    20   10   12 1
    21   12   13 2
    22   12   14 am
    23   14   15 1
    24   14   17 1
    25   15   16 2
    26   15   31 1
    27   17   18 1
    28   17   32 1
    29   17   33 1
    30   18   19 2
    31   18   20 1
    32   20   24 1
    33   20   21 2
    34   21   22 1
    35   22   23 2
    36   22   34 1
    37   23   24 1
    38   23   35 1
    39   24   36 1
    40   24   37 1
@<TRIPOS>MOLECULE
ZINC57718904
   58    61     0     0     0
SMALL
USER_CHARGES

@<TRIPOS>ATOM
      1 C1         -0.0184    1.5028    0.0103 C.3       1 <0>        -0.1298
      2 C2          0.0021   -0.0041    0.0020 C.ar      1 <0>        -0.0442
      3 C3          0.0056   -0.6827   -1.2145 C.ar      1 <0>        -0.0944
      4 C4          0.0222   -2.0440   -1.2542 C.ar      1 <0>        -0.0948
      5 C5          0.0332   -2.7729   -0.0551 C.ar      1 <0>        -0.1158
      6 C6          0.0347   -4.1834   -0.0550 C.ar      1 <0>         0.0109
      7 C7          0.0514   -4.8206    1.1474 C.ar      1 <0>        -0.2397
      8 C8          0.0761   -4.0910    2.3365 C.ar      1 <0>         0.3277
      9 N1          0.0588   -2.7732    2.3307 N.ar      1 <0>        -0.4553
     10 C9          0.0365   -2.0857    1.1831 C.ar      1 <0>         0.1682
     11 C10         0.0225   -0.6800    1.1833 C.ar      1 <0>        -0.0657
     12 C11         0.0249    0.0759    2.4870 C.3       1 <0>        -0.1159
     13 O1          0.1479   -4.7527    3.5243 O.3       1 <0>        -0.2989
     14 C12         1.3802   -5.4393    3.7689 C.3       1 <0>         0.0524
     15 C13         1.3649   -6.8176    3.1478 C.3       1 <0>        -0.0548
     16 N2          1.3247   -6.8125    1.6895 N.4       1 <0>        -0.3829
     17 C14         0.0280   -6.3360    1.1970 C.3       1 <0>         0.0525
     18 C15         1.5553   -8.1770    1.1965 C.3       1 <0>        -0.0087
     19 C16         2.9728   -8.6196    1.5648 C.3       1 <0>        -0.0954
     20 C17         3.2093  -10.0194    1.0591 C.ar      1 <0>        -0.1089
     21 C18         2.9047  -11.1033    1.8615 C.ar      1 <0>        -0.1020
     22 C19         3.1198  -12.3893    1.4022 C.ar      1 <0>        -0.1716
     23 C20         3.6414  -12.5942    0.1349 C.ar      1 <0>         0.1184
     24 C21         3.9476  -11.5032   -0.6729 C.ar      1 <0>         0.1061
     25 C22         3.7250  -10.2169   -0.2082 C.ar      1 <0>        -0.1655
     26 O2          4.4596  -11.6992   -1.9174 O.3       1 <0>        -0.3006
     27 C23         4.7500  -10.5329   -2.6905 C.3       1 <0>         0.0251
     28 O3          3.8540  -13.8586   -0.3183 O.3       1 <0>        -0.3013
     29 C24         3.5169  -14.9298    0.5654 C.3       1 <0>         0.0227
     30 H1          1.0042    1.8801    0.0026 H         1 <0>         0.0840
     31 H2         -0.5455    1.8639   -0.8728 H         1 <0>         0.0780
     32 H3         -0.5286    1.8543    0.9071 H         1 <0>         0.0795
     33 H4         -0.0047   -0.1224   -2.1377 H         1 <0>         0.1403
     34 H5          0.0265   -2.5596   -2.2032 H         1 <0>         0.1403
     35 H6          0.0233   -4.7404   -0.9802 H         1 <0>         0.1564
     36 H7         -1.0021    0.2444    2.8112 H         1 <0>         0.0787
     37 H8          0.5538   -0.5048    3.2427 H         1 <0>         0.0794
     38 H9          0.5246    1.0349    2.3500 H         1 <0>         0.0757
     39 H10         2.2016   -4.8636    3.3424 H         1 <0>         0.0836
     40 H11         1.5305   -5.5330    4.8444 H         1 <0>         0.1522
     41 H12         2.2588   -7.3527    3.4685 H         1 <0>         0.1486
     42 H13         0.4915   -7.3550    3.5172 H         1 <0>         0.1422
     43 H14        -0.7627   -6.6673    1.8701 H         1 <0>         0.1444
     44 H15        -0.1509   -6.7315    0.1972 H         1 <0>         0.1432
     45 H16         0.8332   -8.8547    1.6520 H         1 <0>         0.1365
     46 H17         1.4386   -8.1964    0.1130 H         1 <0>         0.1353
     47 H18         3.6949   -7.9419    1.1094 H         1 <0>         0.0945
     48 H19         3.0895   -8.6002    2.6484 H         1 <0>         0.0970
     49 H20         2.4981  -10.9449    2.8494 H         1 <0>         0.1294
     50 H21         2.8817  -13.2343    2.0312 H         1 <0>         0.1423
     51 H22         3.9583   -9.3686   -0.8346 H         1 <0>         0.1367
     52 H23         5.1518  -10.8299   -3.6592 H         1 <0>         0.1070
     53 H24         3.8361   -9.9574   -2.8371 H         1 <0>         0.0540
     54 H25         5.4838   -9.9219   -2.1647 H         1 <0>         0.0564
     55 H26         4.1031  -14.8441    1.4804 H         1 <0>         0.0593
     56 H27         2.4554  -14.8803    0.8081 H         1 <0>         0.0586
     57 H28         3.7351  -15.8820    0.0820 H         1 <0>         0.1080
     58 H29         2.0535   -6.2081    1.3406 H         1 <0>         0.4204
@<TRIPOS>BOND
     1    1    2 1
     2    1   30 1
     3    1   31 1
     4    1   32 1
     5    2   11 ar
     6    2    3 ar
     7    3    4 ar
     8    3   33 1
     9    4    5 ar
    10    4   34 1
    11    5   10 ar
    12    5    6 ar
    13    6    7 ar
    14    6   35 1
    15    7   17 1
    16    7    8 ar
    17    8    9 ar
    18    8   13 1
    19    9   10 ar
    20   10   11 ar
    21   11   12 1
    22   12   36 1
    23   12   37 1
    24   12   38 1
    25   13   14 1
    26   14   15 1
    27   14   39 1
    28   14   40 1
    29   15   16 1
    30   15   41 1
    31   15   42 1
    32   16   17 1
    33   16   18 1
    34   16   58 1
    35   17   43 1
    36   17   44 1
    37   18   19 1
    38   18   45 1
    39   18   46 1
    40   19   20 1
    41   19   47 1
    42   19   48 1
    43   20   25 ar
    44   20   21 ar
    45   21   22 ar
    46   21   49 1
    47   22   23 ar
    48   22   50 1
    49   23   24 ar
    50   23   28 1
    51   24   25 ar
    52   24   26 1
    53   25   51 1
    54   26   27 1
    55   27   52 1
    56   27   53 1
    57   27   54 1
    58   28   29 1
    59   29   55 1
    60   29   56 1
    61   29   57 1
@<TRIPOS>MOLECULE
ZINC39011931
   37    39     0     0     0
SMALL
USER_CHARGES

@<TRIPOS>ATOM
      1 C1          0.0779    1.4374   -0.0140 C.3       1 <0>         0.0190
      2 O1          0.0848    0.0084   -0.0205 O.3       1 <0>        -0.3030
      3 C2          0.6923   -0.6104    1.0258 C.ar      1 <0>         0.1781
      4 C3          1.2649    0.1422    2.0409 C.ar      1 <0>        -0.2049
      5 C4          1.8815   -0.4893    3.1037 C.ar      1 <0>        -0.0404
      6 C5          1.9286   -1.8702    3.1561 C.ar      1 <0>        -0.1815
      7 C6          1.3590   -2.6225    2.1454 C.ar      1 <0>        -0.0344
      8 C7          0.7359   -1.9959    1.0836 C.ar      1 <0>        -0.1453
      9 C8          2.6022   -2.5564    4.3164 C.3       1 <0>         0.2689
     10 H1          3.6612   -2.7081    4.1074 H         1 <0>         0.2363
     11 N1          2.4261   -1.7761    5.5508 N.2       1 <0>         0.0509
     12 N2          1.8039   -2.4710    6.3583 N.pl3     1 <0>        -0.1508
     13 C9          1.4830   -3.7019    5.8768 C.2       1 <0>         0.2585
     14 S1          0.6238   -4.9010    6.7456 S.2       1 <0>        -0.2316
     15 N3          1.9432   -3.8425    4.6107 N.pl3     1 <0>        -0.3474
     16 N4          1.8206   -4.9557    3.7690 N.2       1 <0>        -0.2156
     17 C10         1.3056   -6.0586    4.2217 C.2       1 <0>         0.1797
     18 C11         1.2782   -7.2625    3.3719 C.ar      1 <0>        -0.1238
     19 C12         0.7197   -8.4492    3.8534 C.ar      1 <0>        -0.0030
     20 C13         0.6971   -9.5723    3.0521 C.ar      1 <0>        -0.1154
     21 C14         1.2262   -9.5261    1.7730 C.ar      1 <0>        -0.0120
     22 C15         1.7813   -8.3559    1.2885 C.ar      1 <0>        -0.1529
     23 C16         1.8062   -7.2211    2.0769 C.ar      1 <0>         0.1691
     24 F1          2.3437   -6.0769    1.6006 F         1 <0>        -0.1097
     25 Br1        -0.0580  -11.1794    3.7026 Br        1 <0>        -0.0085
     26 H2          1.1038    1.8057   -0.0114 H         1 <0>         0.0652
     27 H3         -0.4369    1.8023   -0.9027 H         1 <0>         0.1132
     28 H4         -0.4384    1.7942    0.8772 H         1 <0>         0.0632
     29 H5          1.2290    1.2208    2.0001 H         1 <0>         0.1490
     30 H6          2.3274    0.0961    3.8942 H         1 <0>         0.1424
     31 H7          1.3974   -3.7009    2.1884 H         1 <0>         0.1555
     32 H8          0.2873   -2.5840    0.2966 H         1 <0>         0.1502
     33 H9          0.8972   -6.0935    5.2210 H         1 <0>         0.2032
     34 H10         0.3069   -8.4875    4.8507 H         1 <0>         0.1597
     35 H11         1.2053  -10.4087    1.1508 H         1 <0>         0.1586
     36 H12         2.1923   -8.3275    0.2901 H         1 <0>         0.1610
     37 H13         1.5669   -2.1691    7.2492 H         1 <0>         0.4985
@<TRIPOS>BOND
     1    1    2 1
     2    1   26 1
     3    1   27 1
     4    1   28 1
     5    2    3 1
     6    3    8 ar
     7    3    4 ar
     8    4    5 ar
     9    4   29 1
    10    5    6 ar
    11    5   30 1
    12    6    7 ar
    13    6    9 1
    14    7    8 ar
    15    7   31 1
    16    8   32 1
    17    9   10 1
    18    9   15 1
    19    9   11 1
    20   11   12 2
    21   12   13 1
    22   12   37 1
    23   13   14 2
    24   13   15 1
    25   15   16 1
    26   16   17 2
    27   17   18 1
    28   17   33 1
    29   18   23 ar
    30   18   19 ar
    31   19   20 ar
    32   19   34 1
    33   20   21 ar
    34   20   25 1
    35   21   22 ar
    36   21   35 1
    37   22   23 ar
    38   22   36 1
    39   23   24 1
@<TRIPOS>MOLECULE
ZINC10628345
   47    49     0     0     0
SMALL
USER_CHARGES
[2-[1-(1,1-dioxothiolan-3-yl)-2,5-dimethyl-pyrrol-3-yl]-2-oxo-ethyl] 3-bromobenzoate
@<TRIPOS>ATOM
      1 C1         -7.0458   -6.0352   -0.3453 C.3       1 <0>        -0.1010
      2 C2         -5.5544   -5.9499   -0.1466 C.2       1 <0>         0.0107
      3 C3         -4.8393   -4.8136   -0.0961 C.2       1 <0>        -0.1461
      4 C4         -3.4409   -5.2137    0.1098 C.2       1 <0>        -0.2635
      5 C5         -3.4462   -6.5950    0.1595 C.2       1 <0>         0.1245
      6 N1         -4.7152   -7.0148    0.0108 N.pl3     1 <0>        -0.4248
      7 C6         -5.1366   -8.4179    0.0106 C.3       1 <0>         0.1285
      8 H1         -4.2590   -9.0592    0.0924 H         1 <0>         0.1266
      9 C7         -5.8755   -8.7289   -1.3015 C.3       1 <0>        -0.1507
     10 C8         -6.5773  -10.1083   -1.1469 C.3       1 <0>        -0.5703
     11 S1         -7.2045   -9.9758    0.5805 S.o2      1 <0>         2.3746
     12 O1         -8.5296   -9.4634    0.5532 O.2       1 <0>        -0.9211
     13 O2         -6.9396  -11.1936    1.2632 O.2       1 <0>        -0.9246
     14 C9         -6.0723   -8.6735    1.2166 C.3       1 <0>        -0.6103
     15 C10        -2.2397   -7.4774    0.3512 C.3       1 <0>        -0.1034
     16 C11        -2.2789   -4.3306    0.2312 C.2       1 <0>         0.4287
     17 O3         -1.1736   -4.8020    0.3999 O.2       1 <0>        -0.4454
     18 C12        -2.4560   -2.8364    0.1467 C.3       1 <0>         0.0430
     19 O4         -1.1658   -2.1870    0.2949 O.3       1 <0>        -0.3346
     20 C13        -1.1490   -0.8410    0.2426 C.2       1 <0>         0.5129
     21 O5         -2.1838   -0.2266    0.0776 O.2       1 <0>        -0.4989
     22 C14         0.1279   -0.1121    0.3858 C.ar      1 <0>        -0.1207
     23 C15         0.1488    1.2832    0.3320 C.ar      1 <0>        -0.0389
     24 C16         1.3443    1.9580    0.4659 C.ar      1 <0>        -0.1235
     25 C17         2.5217    1.2558    0.6537 C.ar      1 <0>        -0.0538
     26 C18         2.5088   -0.1275    0.7076 C.ar      1 <0>        -0.1072
     27 C19         1.3190   -0.8151    0.5750 C.ar      1 <0>        -0.0320
     28 Br1         4.1239   -1.0769    0.9640 Br        1 <0>        -0.0349
     29 H2         -7.2728   -6.0028   -1.4109 H         1 <0>         0.0815
     30 H3         -7.4157   -6.9696    0.0768 H         1 <0>         0.0655
     31 H4         -7.5275   -5.1948    0.1546 H         1 <0>         0.0898
     32 H5         -5.2173   -3.8062   -0.1891 H         1 <0>         0.1528
     33 H6         -6.6200   -7.9569   -1.4966 H         1 <0>         0.1053
     34 H7         -5.1625   -8.7691   -2.1250 H         1 <0>         0.1127
     35 H8         -7.3975  -10.2151   -1.8569 H         1 <0>         0.1520
     36 H9         -5.8641  -10.9267   -1.2457 H         1 <0>         0.1467
     37 H10        -5.5068   -9.0382    2.0741 H         1 <0>         0.1542
     38 H11        -6.6270   -7.7710    1.4735 H         1 <0>         0.1535
     39 H12        -2.0837   -7.6534    1.4155 H         1 <0>         0.0849
     40 H13        -2.4018   -8.4293   -0.1546 H         1 <0>         0.0683
     41 H14        -1.3611   -6.9878   -0.0688 H         1 <0>         0.1037
     42 H15        -3.0684   -2.5316    0.8761 H         1 <0>         0.0934
     43 H16        -2.8850   -2.5755   -0.8208 H         1 <0>         0.1060
     44 H17        -0.7687    1.8327    0.1814 H         1 <0>         0.1465
     45 H18         1.3614    3.0370    0.4245 H         1 <0>         0.1454
     46 H19         3.4550    1.7892    0.7580 H         1 <0>         0.1421
     47 H20         1.3098   -1.8942    0.6171 H         1 <0>         0.1518
@<TRIPOS>BOND
     1    1    2 1
     2    1   29 1
     3    1   30 1
     4    1   31 1
     5    2    6 1
     6    2    3 2
     7    3    4 1
     8    3   32 1
     9    4    5 2
    10    4   16 1
    11    5    6 1
    12    5   15 1
    13    6    7 1
    14    7    8 1
    15    7   14 1
    16    7    9 1
    17    9   10 1
    18    9   33 1
    19    9   34 1
    20   10   11 1
    21   10   35 1
    22   10   36 1
    23   11   12 2
    24   11   13 2
    25   11   14 1
    26   14   37 1
    27   14   38 1
    28   15   39 1
    29   15   40 1
    30   15   41 1
    31   16   17 2
    32   16   18 1
    33   18   19 1
    34   18   42 1
    35   18   43 1
    36   19   20 1
    37   20   21 2
    38   20   22 1
    39   22   27 ar
    40   22   23 ar
    41   23   24 ar
    42   23   44 1
    43   24   25 ar
    44   24   45 1
    45   25   26 ar
    46   25   46 1
    47   26   27 ar
    48   26   28 1
    49   27   47 1
@<TRIPOS>MOLECULE
ZINC15228780
   43    45     0     0     0
SMALL
USER_CHARGES
2-[[5-bromo-2-methoxy-4-[(Z)-(3-methyl-2,4-dioxo-thiazolidin-5-ylidene)methyl]phenoxy]methyl]benzonitrile
@<TRIPOS>ATOM
      1 C1         -1.6359    7.4743    1.1730 C.3       1 <0>         0.0613
      2 N1         -1.3017    6.0491    1.1157 N.am      1 <0>        -0.5799
      3 C2         -0.1668    5.6737    0.5501 C.2       1 <0>         0.5570
      4 O1          0.6089    6.4825    0.0751 O.2       1 <0>        -0.4601
      5 C3          0.1097    4.2241    0.5197 C.2       1 <0>        -0.2026
      6 C4          1.1763    3.5572    0.0094 C.2       1 <0>         0.0702
      7 C5          1.1583    2.0912   -0.0647 C.ar      1 <0>        -0.0627
      8 C6         -0.0552    1.3976    0.0286 C.ar      1 <0>        -0.1455
      9 C7         -0.0654    0.0193   -0.0423 C.ar      1 <0>         0.1252
     10 C8          1.1300   -0.6807   -0.2064 C.ar      1 <0>         0.1375
     11 C9          2.3336    0.0041   -0.2986 C.ar      1 <0>        -0.1505
     12 C10         2.3546    1.3811   -0.2285 C.ar      1 <0>        -0.0528
     13 Br1         3.9969    2.3101   -0.3545 Br        1 <0>        -0.0209
     14 O2          1.1160   -2.0373   -0.2757 O.3       1 <0>        -0.2846
     15 C11         2.3753   -2.6914   -0.4442 C.3       1 <0>         0.0892
     16 C12         2.1636   -4.1824   -0.4994 C.ar      1 <0>        -0.0462
     17 C13         0.8918   -4.7049   -0.3852 C.ar      1 <0>        -0.0964
     18 C14         0.6952   -6.0732   -0.4401 C.ar      1 <0>        -0.0858
     19 C15         1.7720   -6.9275   -0.6000 C.ar      1 <0>        -0.1159
     20 C16         3.0494   -6.4190   -0.7102 C.ar      1 <0>        -0.0667
     21 C17         3.2546   -5.0385   -0.6605 C.ar      1 <0>        -0.0217
     22 C18         4.5781   -4.5036   -0.7738 C.1       1 <0>         0.2437
     23 N2          5.6280   -4.0792   -0.8637 N.1       1 <0>        -0.4025
     24 O3         -1.2420   -0.6570    0.0475 O.3       1 <0>        -0.2950
     25 C19        -2.4276    0.1231    0.2142 C.3       1 <0>         0.0180
     26 S1         -1.3424    3.5889    1.3464 S.3       1 <0>        -0.0546
     27 C20        -2.1554    5.1500    1.6464 C.2       1 <0>         0.5421
     28 O4         -3.2211    5.3534    2.1963 O.2       1 <0>        -0.4128
     29 H1         -2.5960    7.6025    1.6729 H         1 <0>         0.0992
     30 H2         -0.8634    8.0066    1.7279 H         1 <0>         0.0855
     31 H3         -1.6970    7.8741    0.1609 H         1 <0>         0.0854
     32 H4          2.0381    4.1051   -0.3419 H         1 <0>         0.1706
     33 H5         -0.9809    1.9403    0.1511 H         1 <0>         0.1593
     34 H6          3.2562   -0.5430   -0.4252 H         1 <0>         0.1531
     35 H7          2.8379   -2.3554   -1.3722 H         1 <0>         0.0858
     36 H8          3.0265   -2.4477    0.3953 H         1 <0>         0.0857
     37 H9          0.0474   -4.0440   -0.2565 H         1 <0>         0.1462
     38 H10        -0.3028   -6.4767   -0.3536 H         1 <0>         0.1353
     39 H11         1.6119   -7.9949   -0.6383 H         1 <0>         0.1372
     40 H12         3.8890   -7.0869   -0.8343 H         1 <0>         0.1375
     41 H13        -3.2924   -0.5379    0.2716 H         1 <0>         0.1102
     42 H14        -2.3534    0.7050    1.1329 H         1 <0>         0.0611
     43 H15        -2.5413    0.7973   -0.6347 H         1 <0>         0.0606
@<TRIPOS>BOND
     1    1    2 1
     2    1   29 1
     3    1   30 1
     4    1   31 1
     5    2   27 am
     6    2    3 am
     7    3    4 2
     8    3    5 1
     9    5    6 2
    10    5   26 1
    11    6    7 1
    12    6   32 1
    13    7   12 ar
    14    7    8 ar
    15    8    9 ar
    16    8   33 1
    17    9   10 ar
    18    9   24 1
    19   10   11 ar
    20   10   14 1
    21   11   12 ar
    22   11   34 1
    23   12   13 1
    24   14   15 1
    25   15   16 1
    26   15   35 1
    27   15   36 1
    28   16   21 ar
    29   16   17 ar
    30   17   18 ar
    31   17   37 1
    32   18   19 ar
    33   18   38 1
    34   19   20 ar
    35   19   39 1
    36   20   21 ar
    37   20   40 1
    38   21   22 1
    39   22   23 3
    40   24   25 1
    41   25   41 1
    42   25   42 1
    43   25   43 1
    44   26   27 1
    45   27   28 2
@<TRIPOS>MOLECULE
ZINC25718190
   53    57     0     0     0
SMALL
USER_CHARGES
[4-(1,3-benzothiazol-2-yl)-1-piperidyl]-[2-[(3-methyl-1,2,4-oxadiazol-5-yl)methylsulfanyl]phenyl]methanone
@<TRIPOS>ATOM
      1 C1         10.4235    1.5928    1.1765 C.3       1 <0>        -0.0689
      2 C2         10.0002    2.9742    0.7480 C.2       1 <0>         0.1723
      3 N1          9.1089    3.2708   -0.2146 N.2       1 <0>        -0.4605
      4 C3          9.0491    4.5803   -0.2488 C.2       1 <0>         0.1908
      5 O1          9.8992    5.0324    0.6780 O.3       1 <0>         0.0914
      6 N2         10.4290    4.0975    1.2408 N.2       1 <0>        -0.3753
      7 C4          8.1905    5.4159   -1.1630 C.3       1 <0>        -0.0456
      8 S1          6.5872    5.7239   -0.3724 S.3       1 <0>        -0.0250
      9 C5          5.7116    6.6991   -1.5501 C.ar      1 <0>        -0.0500
     10 C6          6.3100    7.0412   -2.7577 C.ar      1 <0>        -0.1370
     11 C7          5.6221    7.8042   -3.6778 C.ar      1 <0>        -0.0748
     12 C8          4.3324    8.2358   -3.4084 C.ar      1 <0>        -0.1247
     13 C9          3.7204    7.9024   -2.2203 C.ar      1 <0>        -0.0719
     14 C10         4.4053    7.1348   -1.2745 C.ar      1 <0>        -0.1096
     15 C11         3.7587    6.7797    0.0014 C.2       1 <0>         0.5610
     16 O2          4.3031    7.0497    1.0548 O.2       1 <0>        -0.5119
     17 N3          2.5641    6.1557    0.0008 N.am      1 <0>        -0.6058
     18 C12         1.9500    5.7133    1.2601 C.3       1 <0>         0.1133
     19 C13         1.6096    4.2240    1.1462 C.3       1 <0>        -0.1297
     20 C14         0.7387    3.9971   -0.0916 C.3       1 <0>        -0.0013
     21 C15         1.5125    4.4129   -1.3448 C.3       1 <0>        -0.1301
     22 C16         1.8515    5.9044   -1.2593 C.3       1 <0>         0.0993
     23 C17         0.3736    2.5382   -0.1880 C.2       1 <0>         0.1452
     24 N4         -0.8133    1.9997   -0.1826 N.2       1 <0>        -0.5057
     25 C18        -1.0052    0.6674   -0.2765 C.ar      1 <0>         0.0753
     26 C19        -2.2164   -0.0594   -0.2845 C.ar      1 <0>        -0.0597
     27 C20        -2.2118   -1.4158   -0.3880 C.ar      1 <0>        -0.1108
     28 C21        -1.0285   -2.1344   -0.4890 C.ar      1 <0>        -0.0935
     29 C22         0.1779   -1.4599   -0.4848 C.ar      1 <0>        -0.0671
     30 C23         0.1837   -0.0901   -0.3807 C.ar      1 <0>        -0.1521
     31 S2          1.4329    1.1702   -0.3336 S.3       1 <0>         0.0292
     32 H1          9.8880    0.8425    0.5762 H         1 <0>         0.0956
     33 H2         10.1845    1.4497    2.2406 H         1 <0>         0.0917
     34 H3         11.5070    1.4780    1.0254 H         1 <0>         0.0915
     35 H4          8.6916    6.3748   -1.3616 H         1 <0>         0.1315
     36 H5          8.0350    4.8802   -2.1111 H         1 <0>         0.1366
     37 H6          7.3142    6.7088   -2.9755 H         1 <0>         0.1308
     38 H7          6.0911    8.0670   -4.6145 H         1 <0>         0.1340
     39 H8          3.8028    8.8325   -4.1363 H         1 <0>         0.1350
     40 H9          2.7137    8.2374   -2.0181 H         1 <0>         0.1363
     41 H10         2.6565    5.8721    2.0882 H         1 <0>         0.1032
     42 H11         1.0331    6.2924    1.4442 H         1 <0>         0.0773
     43 H12         2.5383    3.6416    1.0547 H         1 <0>         0.0780
     44 H13         1.0626    3.9031    2.0450 H         1 <0>         0.0874
     45 H14        -0.1862    4.5870   -0.0108 H         1 <0>         0.1131
     46 H15         2.4413    3.8276   -1.4132 H         1 <0>         0.0788
     47 H16         0.8950    4.2262   -2.2358 H         1 <0>         0.0875
     48 H17         0.9264    6.4991   -1.2823 H         1 <0>         0.0804
     49 H18         2.4924    6.1904   -2.1063 H         1 <0>         0.1007
     50 H19        -3.1561    0.4674   -0.2080 H         1 <0>         0.1332
     51 H20        -3.1522   -1.9468   -0.3920 H         1 <0>         0.1355
     52 H21        -1.0503   -3.2111   -0.5705 H         1 <0>         0.1400
     53 H22         1.1072   -2.0046   -0.5623 H         1 <0>         0.1348
@<TRIPOS>BOND
     1    1    2 1
     2    1   32 1
     3    1   33 1
     4    1   34 1
     5    2    6 2
     6    2    3 1
     7    3    4 2
     8    4    5 1
     9    4    7 1
    10    5    6 1
    11    7    8 1
    12    7   35 1
    13    7   36 1
    14    8    9 1
    15    9   14 ar
    16    9   10 ar
    17   10   11 ar
    18   10   37 1
    19   11   12 ar
    20   11   38 1
    21   12   13 ar
    22   12   39 1
    23   13   14 ar
    24   13   40 1
    25   14   15 1
    26   15   16 2
    27   15   17 am
    28   17   22 1
    29   17   18 1
    30   18   19 1
    31   18   41 1
    32   18   42 1
    33   19   20 1
    34   19   43 1
    35   19   44 1
    36   20   21 1
    37   20   23 1
    38   20   45 1
    39   21   22 1
    40   21   46 1
    41   21   47 1
    42   22   48 1
    43   22   49 1
    44   23   31 1
    45   23   24 2
    46   24   25 1
    47   25   30 ar
    48   25   26 ar
    49   26   27 ar
    50   26   50 1
    51   27   28 ar
    52   27   51 1
    53   28   29 ar
    54   28   52 1
    55   29   30 ar
    56   29   53 1
    57   30   31 1
@<TRIPOS>MOLECULE
ZINC33478747
   57    59     0     0     0
SMALL
USER_CHARGES
(2R)-2-(2-chlorophenoxy)-N-[(4-dimethylaminophenyl)methyl]-N-[(3S)-1,1-dioxothiolan-3-yl]propanamide
@<TRIPOS>ATOM
      1 C1          3.1934   -2.8205   -1.4309 C.3       1 <0>        -0.1827
      2 C2          2.1032   -2.5326   -0.3968 C.3       1 <0>         0.0676
      3 H1          1.4437   -3.4004   -0.2487 H         1 <0>         0.0966
      4 C3          1.3030   -1.3319   -0.8314 C.2       1 <0>         0.5240
      5 O1          1.6289   -0.2218   -0.4674 O.2       1 <0>        -0.4973
      6 N1          0.2252   -1.4916   -1.6246 N.am      1 <0>        -0.5967
      7 C4         -0.2228   -2.8378   -1.9894 C.3       1 <0>         0.1464
      8 C5          0.3524   -3.2124   -3.3310 C.ar      1 <0>        -0.1758
      9 C6          0.0835   -2.4306   -4.4395 C.ar      1 <0>        -0.0563
     10 C7          0.6137   -2.7678   -5.6693 C.ar      1 <0>        -0.1926
     11 C8          1.4087   -3.9001   -5.7943 C.ar      1 <0>         0.2223
     12 C9          1.6721   -4.6864   -4.6798 C.ar      1 <0>        -0.1924
     13 C10         1.1433   -4.3403   -3.4519 C.ar      1 <0>        -0.0595
     14 N2          1.9414   -4.2475   -7.0378 N.pl3     1 <0>        -0.6354
     15 C11         2.6753   -5.5057   -7.1946 C.3       1 <0>         0.0907
     16 C12         1.7664   -3.3537   -8.1853 C.3       1 <0>         0.0899
     17 C13        -0.4984   -0.3189   -2.1221 C.3       1 <0>         0.1511
     18 H2         -1.3195   -0.6919   -2.7519 H         1 <0>         0.1145
     19 C14        -1.0589    0.4778   -0.9323 C.3       1 <0>        -0.1564
     20 C15        -1.5407    1.8599   -1.4587 C.3       1 <0>        -0.5774
     21 S1         -0.1847    2.2623   -2.6394 S.o2      1 <0>         2.3873
     22 O2         -0.7523    2.7630   -3.8420 O.2       1 <0>        -0.9376
     23 O3          0.8064    3.0237   -1.9631 O.2       1 <0>        -0.9220
     24 C16         0.4662    0.5694   -2.9444 C.3       1 <0>        -0.6060
     25 O4          2.7072   -2.2690    0.8712 O.3       1 <0>        -0.2800
     26 C17         3.0098   -3.3440    1.6460 C.ar      1 <0>         0.1391
     27 C18         2.8368   -4.6281    1.1509 C.ar      1 <0>        -0.2039
     28 C19         3.1501   -5.7191    1.9383 C.ar      1 <0>        -0.0735
     29 C20         3.6256   -5.5326    3.2233 C.ar      1 <0>        -0.1444
     30 C21         3.7944   -4.2543    3.7219 C.ar      1 <0>        -0.0712
     31 C22         3.4873   -3.1588    2.9362 C.ar      1 <0>        -0.0678
     32 Cl1         3.6993   -1.5536    3.5624 Cl        1 <0>        -0.0494
     33 H3          3.7775   -3.6970   -1.1136 H         1 <0>         0.0782
     34 H4          3.8580   -1.9481   -1.5156 H         1 <0>         0.0794
     35 H5          2.7285   -3.0234   -2.4070 H         1 <0>         0.0910
     36 H6          0.1194   -3.5564   -1.2302 H         1 <0>         0.0912
     37 H7         -1.3213   -2.8567   -2.0433 H         1 <0>         0.0971
     38 H8         -0.5385   -1.5530   -4.3426 H         1 <0>         0.1196
     39 H9          0.4070   -2.1543   -6.5338 H         1 <0>         0.1232
     40 H10         2.2894   -5.5676   -4.7736 H         1 <0>         0.1231
     41 H11         1.3475   -4.9513   -2.5851 H         1 <0>         0.1208
     42 H12         3.0158   -5.6042   -8.2359 H         1 <0>         0.0757
     43 H13         2.0152   -6.3490   -6.9433 H         1 <0>         0.0561
     44 H14         3.5459   -5.5085   -6.5223 H         1 <0>         0.0556
     45 H15         2.2509   -3.7932   -9.0696 H         1 <0>         0.0759
     46 H16         2.2239   -2.3783   -7.9634 H         1 <0>         0.0563
     47 H17         0.6930   -3.2185   -8.3844 H         1 <0>         0.0563
     48 H18        -1.9010   -0.0722   -0.4869 H         1 <0>         0.1017
     49 H19        -0.2700    0.6141   -0.1780 H         1 <0>         0.1129
     50 H20        -2.5250    1.7474   -1.9367 H         1 <0>         0.1420
     51 H21        -1.6197    2.5651   -0.6182 H         1 <0>         0.1470
     52 H22         1.4934    0.4355   -2.5743 H         1 <0>         0.1549
     53 H23         0.4178    0.2796   -4.0044 H         1 <0>         0.1452
     54 H24         2.4612   -4.7748    0.1490 H         1 <0>         0.1366
     55 H25         3.0192   -6.7189    1.5515 H         1 <0>         0.1329
     56 H26         3.8653   -6.3872    3.8387 H         1 <0>         0.1349
     57 H27         4.1660   -4.1112    4.7258 H         1 <0>         0.1412
@<TRIPOS>BOND
     1    1    2 1
     2    1   33 1
     3    1   34 1
     4    1   35 1
     5    2    3 1
     6    2    4 1
     7    2   25 1
     8    4    5 2
     9    4    6 am
    10    6    7 1
    11    6   17 1
    12    7    8 1
    13    7   36 1
    14    7   37 1
    15    8   13 ar
    16    8    9 ar
    17    9   10 ar
    18    9   38 1
    19   10   11 ar
    20   10   39 1
    21   11   12 ar
    22   11   14 1
    23   12   13 ar
    24   12   40 1
    25   13   41 1
    26   14   15 1
    27   14   16 1
    28   15   42 1
    29   15   43 1
    30   15   44 1
    31   16   45 1
    32   16   46 1
    33   16   47 1
    34   17   18 1
    35   17   24 1
    36   17   19 1
    37   19   20 1
    38   19   48 1
    39   19   49 1
    40   20   21 1
    41   20   50 1
    42   20   51 1
    43   21   22 2
    44   21   23 2
    45   21   24 1
    46   24   52 1
    47   24   53 1
    48   25   26 1
    49   26   31 ar
    50   26   27 ar
    51   27   28 ar
    52   27   54 1
    53   28   29 ar
    54   28   55 1
    55   29   30 ar
    56   29   56 1
    57   30   31 ar
    58   30   57 1
    59   31   32 1
@<TRIPOS>MOLECULE
ZINC21418671
   61    65     0     0     0
SMALL
USER_CHARGES

@<TRIPOS>ATOM
      1 C1          0.5206    1.1618   -0.0863 C.3       1 <0>        -0.0821
      2 C2          0.2003   -0.3069    0.0212 C.2       1 <0>         0.0192
      3 C3          0.0966   -1.1592   -1.0131 C.2       1 <0>        -0.1529
      4 C4         -0.2250   -2.4717   -0.4373 C.2       1 <0>        -0.2668
      5 C5         -0.2865   -2.2795    0.9319 C.2       1 <0>         0.1264
      6 N1         -0.0250   -0.9846    1.1853 N.pl3     1 <0>        -0.3365
      7 C6          0.0081   -0.4083    2.4693 C.2       1 <0>        -0.1350
      8 C7         -1.0370    0.1411    3.1300 C.2       1 <0>         0.2237
      9 N2         -0.5989    0.5891    4.3454 N.pl3     1 <0>        -0.3833
     10 N3          0.7688    0.3196    4.4695 N.am      1 <0>        -0.3640
     11 C8          1.1780   -0.2973    3.3415 C.2       1 <0>         0.5464
     12 O1          2.3059   -0.6847    3.0950 O.2       1 <0>        -0.5086
     13 C9          1.5703    0.6306    5.5724 C.ar      1 <0>         0.1423
     14 C10         2.7961    1.2570    5.3874 C.ar      1 <0>        -0.1011
     15 C11         3.5853    1.5628    6.4787 C.ar      1 <0>        -0.0977
     16 C12         3.1565    1.2457    7.7546 C.ar      1 <0>        -0.1132
     17 C13         1.9366    0.6221    7.9423 C.ar      1 <0>        -0.1014
     18 C14         1.1398    0.3191    6.8556 C.ar      1 <0>        -0.1272
     19 C15        -1.4293    1.2474    5.3570 C.3       1 <0>         0.0925
     20 C16        -2.4487    0.2428    2.6124 C.3       1 <0>        -0.1075
     21 C17        -0.5882   -3.3385    1.9608 C.3       1 <0>        -0.0917
     22 C18        -0.4370   -3.7252   -1.1625 C.2       1 <0>         0.4285
     23 O2         -0.6988   -4.7418   -0.5536 O.2       1 <0>        -0.4545
     24 C19        -0.3301   -3.7536   -2.6655 C.3       1 <0>         0.0199
     25 N4         -0.5837   -5.1174   -3.1488 N.3       1 <0>        -0.5305
     26 C20        -0.2271   -5.2478   -4.5687 C.3       1 <0>         0.0617
     27 C21        -0.1125   -6.7419   -4.9157 C.3       1 <0>        -0.0349
     28 C22        -1.3081   -7.4340   -4.3470 C.2       1 <0>        -0.1412
     29 C23        -2.1825   -6.9282   -3.4326 C.2       1 <0>        -0.1210
     30 C24        -3.2318   -7.7599   -3.0489 C.2       1 <0>        -0.1428
     31 C25        -3.3403   -9.0009   -3.5784 C.2       1 <0>        -0.1794
     32 S1         -1.9303   -9.0586   -4.6749 S.3       1 <0>         0.0355
     33 C26        -1.9725   -5.5178   -2.8897 C.3       1 <0>         0.1155
     34 H1          1.6006    1.3022   -0.0426 H         1 <0>         0.0705
     35 H2          0.1420    1.5479   -1.0327 H         1 <0>         0.0811
     36 H3          0.0508    1.6974    0.7386 H         1 <0>         0.0592
     37 H4          0.2244   -0.9254   -2.0597 H         1 <0>         0.1485
     38 H5          3.1319    1.5042    4.3911 H         1 <0>         0.1315
     39 H6          4.5386    2.0498    6.3355 H         1 <0>         0.1357
     40 H7          3.7758    1.4853    8.6063 H         1 <0>         0.1324
     41 H8          1.6047    0.3755    8.9400 H         1 <0>         0.1339
     42 H9          0.1850   -0.1636    7.0032 H         1 <0>         0.1267
     43 H10        -1.8704    0.4949    6.0107 H         1 <0>         0.0799
     44 H11        -0.8134    1.9256    5.9475 H         1 <0>         0.0917
     45 H12        -2.2220    1.8113    4.8654 H         1 <0>         0.1021
     46 H13        -3.0072   -0.6471    2.9029 H         1 <0>         0.1001
     47 H14        -2.9277    1.1263    3.0345 H         1 <0>         0.0876
     48 H15        -2.4323    0.3227    1.5255 H         1 <0>         0.1001
     49 H16         0.3417   -3.8064    2.2840 H         1 <0>         0.0779
     50 H17        -1.0824   -2.8817    2.8182 H         1 <0>         0.0592
     51 H18        -1.2421   -4.0934    1.5242 H         1 <0>         0.0984
     52 H19        -1.0656   -3.0733   -3.0949 H         1 <0>         0.0679
     53 H20         0.6708   -3.4423   -2.9645 H         1 <0>         0.1094
     54 H21        -1.0011   -4.7884   -5.1834 H         1 <0>         0.0424
     55 H22         0.7280   -4.7558   -4.7522 H         1 <0>         0.0872
     56 H23        -0.0920   -6.8693   -5.9980 H         1 <0>         0.0852
     57 H24         0.7963   -7.1543   -4.4772 H         1 <0>         0.0914
     58 H25        -3.9587   -7.4148   -2.3286 H         1 <0>         0.1298
     59 H26        -4.0855   -9.7590   -3.3881 H         1 <0>         0.1853
     60 H27        -2.1622   -5.5069   -1.8164 H         1 <0>         0.1047
     61 H28        -2.6517   -4.8281   -3.3908 H         1 <0>         0.0420
@<TRIPOS>BOND
     1    1    2 1
     2    1   34 1
     3    1   35 1
     4    1   36 1
     5    2    6 1
     6    2    3 2
     7    3    4 1
     8    3   37 1
     9    4    5 2
    10    4   22 1
    11    5    6 1
    12    5   21 1
    13    6    7 1
    14    7   11 1
    15    7    8 2
    16    8    9 1
    17    8   20 1
    18    9   10 1
    19    9   19 1
    20   10   11 am
    21   10   13 1
    22   11   12 2
    23   13   18 ar
    24   13   14 ar
    25   14   15 ar
    26   14   38 1
    27   15   16 ar
    28   15   39 1
    29   16   17 ar
    30   16   40 1
    31   17   18 ar
    32   17   41 1
    33   18   42 1
    34   19   43 1
    35   19   44 1
    36   19   45 1
    37   20   46 1
    38   20   47 1
    39   20   48 1
    40   21   49 1
    41   21   50 1
    42   21   51 1
    43   22   23 2
    44   22   24 1
    45   24   25 1
    46   24   52 1
    47   24   53 1
    48   25   33 1
    49   25   26 1
    50   26   27 1
    51   26   54 1
    52   26   55 1
    53   27   28 1
    54   27   56 1
    55   27   57 1
    56   28   32 1
    57   28   29 2
    58   29   30 1
    59   29   33 1
    60   30   31 2
    61   30   58 1
    62   31   32 1
    63   31   59 1
    64   33   60 1
    65   33   61 1
@<TRIPOS>MOLECULE
ZINC04864690
   44    48     0     0     0
SMALL
USER_CHARGES
(4R)-4-(4-phenylphenyl)-1,4-dihydro-[1,3,5]triazino[5,6-a]benzimidazol-2-amine
@<TRIPOS>ATOM
      1 C1          3.2939   -5.2807    7.6248 C.ar      1 <0>        -0.1019
      2 C2          4.3033   -4.3555    7.4287 C.ar      1 <0>        -0.1175
      3 C3          4.4753   -3.7700    6.1908 C.ar      1 <0>        -0.1020
      4 C4          3.6296   -4.1121    5.1376 C.ar      1 <0>        -0.0741
      5 C5          2.6105   -5.0400    5.3424 C.ar      1 <0>        -0.1000
      6 C6          2.4512   -5.6236    6.5830 C.ar      1 <0>        -0.1165
      7 C7          3.8097   -3.4860    3.8044 C.ar      1 <0>         0.0050
      8 C8          2.9639   -3.8281    2.7513 C.ar      1 <0>        -0.1069
      9 C9          3.1356   -3.2423    1.5134 C.ar      1 <0>        -0.0717
     10 C10         4.1451   -2.3171    1.3173 C.ar      1 <0>        -0.1649
     11 C11         4.9909   -1.9778    2.3579 C.ar      1 <0>        -0.0826
     12 C12         4.8249   -2.5535    3.6012 C.ar      1 <0>        -0.1108
     13 C13         4.3280   -1.6813   -0.0367 C.3       1 <0>         0.4200
     14 H1          3.8428   -2.2973   -0.7937 H         1 <0>         0.1454
     15 C14         6.4262   -0.4750   -0.3377 C.cat     1 <0>         0.7403
     16 N1          5.8555    0.7544   -0.0650 N.pl3     1 <0>        -0.5777
     17 C15         4.4674    0.8073   -0.0399 C.2       1 <0>         0.4595
     18 N2          3.7244   -0.3497   -0.0337 N.pl3     1 <0>        -0.5159
     19 C16         2.3976    0.0138   -0.0208 C.ar      1 <0>         0.0953
     20 C17         1.1999   -0.6869   -0.0131 C.ar      1 <0>        -0.1147
     21 C18         0.0021   -0.0041    0.0020 C.ar      1 <0>        -0.0708
     22 C19        -0.0167    1.3829    0.0096 C.ar      1 <0>        -0.1131
     23 C20         1.1605    2.0964    0.0022 C.ar      1 <0>        -0.0484
     24 C21         2.3828    1.4211   -0.0134 C.ar      1 <0>         0.0566
     25 N3          3.6787    1.8390   -0.0247 N.2       1 <0>        -0.4384
     26 N4          7.7699   -0.5258   -0.6243 N.pl3     1 <0>        -0.7941
     27 H2          3.1631   -5.7367    8.5951 H         1 <0>         0.1297
     28 H3          4.9583   -4.0911    8.2457 H         1 <0>         0.1296
     29 H4          5.2638   -3.0478    6.0388 H         1 <0>         0.1243
     30 H5          1.9491   -5.3052    4.5308 H         1 <0>         0.1274
     31 H6          1.6644   -6.3463    6.7417 H         1 <0>         0.1308
     32 H7          2.1756   -4.5505    2.9032 H         1 <0>         0.1410
     33 H8          2.4809   -3.5069    0.6963 H         1 <0>         0.1354
     34 H9          5.7800   -1.2579    2.1982 H         1 <0>         0.1102
     35 H10         5.4830   -2.2844    4.4142 H         1 <0>         0.1354
     36 H11         6.3977    1.5416    0.1003 H         1 <0>         0.4715
     37 H12         1.2060   -1.7668   -0.0186 H         1 <0>         0.1300
     38 H13        -0.9280   -0.5530    0.0076 H         1 <0>         0.1444
     39 H14        -0.9613    1.9065    0.0170 H         1 <0>         0.1449
     40 H15         1.1389    3.1762    0.0084 H         1 <0>         0.1435
     41 H16         8.1924   -1.3769   -0.8191 H         1 <0>         0.4445
     42 H17         8.2954    0.2895   -0.6317 H         1 <0>         0.4417
     43 N5          5.8074   -1.6629   -0.3587 N.pl3     1 <0>        -0.6657
     44 H18         6.3157   -2.5261   -0.5842 H         1 <0>         0.4814
@<TRIPOS>BOND
     1    1    6 ar
     2    1    2 ar
     3    1   27 1
     4    2    3 ar
     5    2   28 1
     6    3    4 ar
     7    3   29 1
     8    4    5 ar
     9    4    7 1
    10    5    6 ar
    11    5   30 1
    12    6   31 1
    13    7   12 ar
    14    7    8 ar
    15    8    9 ar
    16    8   32 1
    17    9   10 ar
    18    9   33 1
    19   10   11 ar
    20   10   13 1
    21   11   12 ar
    22   11   34 1
    23   12   35 1
    24   13   14 1
    25   13   18 1
    26   13   43 1
    27   15   16 1
    28   15   26 1
    29   15   43 2
    30   16   17 1
    31   16   36 1
    32   17   25 2
    33   17   18 1
    34   18   19 1
    35   19   24 ar
    36   19   20 ar
    37   20   21 ar
    38   20   37 1
    39   21   22 ar
    40   21   38 1
    41   22   23 ar
    42   22   39 1
    43   23   24 ar
    44   23   40 1
    45   24   25 1
    46   26   41 1
    47   26   42 1
    48   43   44 1
@<TRIPOS>MOLECULE
ZINC36812977
   38    40     0     0     0
SMALL
USER_CHARGES

@<TRIPOS>ATOM
      1 C1         -1.3587   -0.3074    0.0311 C.3       1 <0>        -0.1627
      2 C2         -0.0167   -1.0403    0.0828 C.3       1 <0>         0.1980
      3 H1          0.4925   -0.9340   -0.8750 H         1 <0>         0.0872
      4 C3         -0.2528   -2.5013    0.3668 C.ar      1 <0>        -0.1154
      5 C4         -0.4998   -2.9229    1.6599 C.ar      1 <0>        -0.1100
      6 C5         -0.7165   -4.2631    1.9205 C.ar      1 <0>        -0.1131
      7 C6         -0.6866   -5.1816    0.8878 C.ar      1 <0>        -0.1097
      8 C7         -0.4405   -4.7599   -0.4054 C.ar      1 <0>        -0.1122
      9 C8         -0.2281   -3.4191   -0.6666 C.ar      1 <0>        -0.1112
     10 N1          0.8135   -0.4645    1.1438 N.pl3     1 <0>        -0.7645
     11 C9          2.2004   -0.4914    1.0338 C.ar      1 <0>         0.2684
     12 C10         2.9825   -1.3145    1.8750 C.ar      1 <0>        -0.0599
     13 C11         2.3908   -2.1329    2.8486 C.ar      1 <0>        -0.0390
     14 C12         3.1778   -2.9136    3.6413 C.ar      1 <0>        -0.0799
     15 C13         4.5642   -2.9090    3.4965 C.ar      1 <0>        -0.0268
     16 C14         5.1697   -2.1268    2.5619 C.ar      1 <0>        -0.1280
     17 C15         4.3907   -1.3079    1.7256 C.ar      1 <0>         0.1322
     18 N2          4.9623   -0.5311    0.7989 N.ar      1 <0>        -0.4375
     19 C16         4.2508    0.2395    0.0093 C.ar      1 <0>         0.1342
     20 C17         2.8603    0.2865    0.0889 C.ar      1 <0>         0.1493
     21 N3          2.1315    1.1166   -0.7752 N.pl3     1 <0>        -0.8429
     22 Br1         2.3794   -4.0160    4.9540 Br        1 <0>         0.0014
     23 H2         -1.1874    0.7509   -0.1661 H         1 <0>         0.0690
     24 H3         -1.9732   -0.7302   -0.7637 H         1 <0>         0.0832
     25 H4         -1.8716   -0.4206    0.9861 H         1 <0>         0.0712
     26 H5         -0.5232   -2.2054    2.4667 H         1 <0>         0.1177
     27 H6         -0.9087   -4.5926    2.9308 H         1 <0>         0.1259
     28 H7         -0.8551   -6.2288    1.0914 H         1 <0>         0.1265
     29 H8         -0.4168   -5.4775   -1.2122 H         1 <0>         0.1264
     30 H9         -0.0395   -3.0891   -1.6775 H         1 <0>         0.1213
     31 H10         0.3964   -0.0646    1.9229 H         1 <0>         0.4175
     32 H11         1.3176   -2.1440    2.9696 H         1 <0>         0.1639
     33 H12         5.1675   -3.5358    4.1365 H         1 <0>         0.1619
     34 H13         6.2451   -2.1351    2.4629 H         1 <0>         0.1639
     35 H14         4.7563    0.8500   -0.7243 H         1 <0>         0.2083
     36 H15         1.1620    1.0880   -0.7721 H         1 <0>         0.4189
     37 H16         2.5971    1.7194   -1.3759 H         1 <0>         0.4157
     38 H17         5.9280   -0.5370    0.7081 H         1 <0>         0.4507
@<TRIPOS>BOND
     1    1    2 1
     2    1   23 1
     3    1   24 1
     4    1   25 1
     5    2    3 1
     6    2    4 1
     7    2   10 1
     8    4    9 ar
     9    4    5 ar
    10    5    6 ar
    11    5   26 1
    12    6    7 ar
    13    6   27 1
    14    7    8 ar
    15    7   28 1
    16    8    9 ar
    17    8   29 1
    18    9   30 1
    19   10   11 1
    20   10   31 1
    21   11   20 ar
    22   11   12 ar
    23   12   17 ar
    24   12   13 ar
    25   13   14 ar
    26   13   32 1
    27   14   15 ar
    28   14   22 1
    29   15   16 ar
    30   15   33 1
    31   16   17 ar
    32   16   34 1
    33   17   18 ar
    34   18   19 ar
    35   18   38 1
    36   19   20 ar
    37   19   35 1
    38   20   21 1
    39   21   36 1
    40   21   37 1
@<TRIPOS>MOLECULE
ZINC40757737
   40    42     0     0     0
SMALL
USER_CHARGES

@<TRIPOS>ATOM
      1 C1          1.2115    0.3276    0.7034 C.3       1 <0>         0.0906
      2 N1         -0.0276   -0.0809    0.0371 N.pl3     1 <0>        -0.5832
      3 C2         -1.2586    0.1182    0.6680 C.ar      1 <0>         0.1865
      4 C3         -2.4246   -0.3642    0.0870 C.ar      1 <0>        -0.1749
      5 C4         -3.6394   -0.1661    0.7134 C.ar      1 <0>        -0.0751
      6 C5         -3.6958    0.5115    1.9176 C.ar      1 <0>        -0.1478
      7 C6         -2.5370    0.9930    2.4987 C.ar      1 <0>        -0.0721
      8 C7         -1.3183    0.7938    1.8803 C.ar      1 <0>        -0.1669
      9 C8          0.0211   -0.6666   -1.2230 C.ar      1 <0>         0.4136
     10 C9          0.0643    0.1256   -2.3720 C.ar      1 <0>         0.1256
     11 C10         0.1128   -0.5138   -3.6121 C.ar      1 <0>         0.4193
     12 N2          0.1160   -1.8444   -3.6516 N.ar      1 <0>        -0.5053
     13 C11         0.0738   -2.5549   -2.5429 C.ar      1 <0>         0.3352
     14 N3          0.0329   -1.9912   -1.3526 N.ar      1 <0>        -0.4497
     15 N4          0.1566    0.2276   -4.7875 N.pl3     1 <0>        -0.6348
     16 C12         0.0949   -0.4200   -6.0251 C.ar      1 <0>         0.0667
     17 C13         1.2396   -0.5489   -6.8011 C.ar      1 <0>        -0.0856
     18 C14         1.1754   -1.1890   -8.0232 C.ar      1 <0>        -0.0967
     19 C15        -0.0270   -1.7013   -8.4754 C.ar      1 <0>        -0.0719
     20 C16        -1.1691   -1.5751   -7.7061 C.ar      1 <0>        -0.0936
     21 C17        -1.1109   -0.9412   -6.4793 C.ar      1 <0>        -0.0435
     22 Cl1        -2.5433   -0.7899   -5.5102 Cl        1 <0>        -0.0426
     23 N5          0.0587    1.5265   -2.2827 N.pl3     1 <0>        -0.8281
     24 H1          1.5398   -0.4640    1.3771 H         1 <0>         0.0708
     25 H2          1.9828    0.5111   -0.0446 H         1 <0>         0.0733
     26 H3          1.0339    1.2395    1.2735 H         1 <0>         0.0897
     27 H4         -2.3813   -0.8931   -0.8536 H         1 <0>         0.1066
     28 H5         -4.5463   -0.5405    0.2621 H         1 <0>         0.1267
     29 H6         -4.6471    0.6654    2.4052 H         1 <0>         0.1285
     30 H7         -2.5846    1.5221    3.4390 H         1 <0>         0.1325
     31 H8         -0.4132    1.1665    2.3367 H         1 <0>         0.1316
     32 H9          0.0771   -3.6327   -2.6117 H         1 <0>         0.2477
     33 H10         0.2300    1.1940   -4.7489 H         1 <0>         0.4396
     34 H11         2.1790   -0.1486   -6.4493 H         1 <0>         0.1472
     35 H12         2.0653   -1.2894   -8.6268 H         1 <0>         0.1503
     36 H13        -0.0742   -2.2007   -9.4318 H         1 <0>         0.1517
     37 H14        -2.1064   -1.9763   -8.0621 H         1 <0>         0.1529
     38 H15        -0.0492    1.9571   -1.4202 H         1 <0>         0.4284
     39 H16         0.1626    2.0640   -3.0835 H         1 <0>         0.4099
     40 H17         0.1495   -2.2972   -4.5088 H         1 <0>         0.4471
@<TRIPOS>BOND
     1    1    2 1
     2    1   24 1
     3    1   25 1
     4    1   26 1
     5    2    3 1
     6    2    9 1
     7    3    8 ar
     8    3    4 ar
     9    4    5 ar
    10    4   27 1
    11    5    6 ar
    12    5   28 1
    13    6    7 ar
    14    6   29 1
    15    7    8 ar
    16    7   30 1
    17    8   31 1
    18    9   14 ar
    19    9   10 ar
    20   10   11 ar
    21   10   23 1
    22   11   12 ar
    23   11   15 1
    24   12   13 ar
    25   12   40 1
    26   13   14 ar
    27   13   32 1
    28   15   16 1
    29   15   33 1
    30   16   21 ar
    31   16   17 ar
    32   17   18 ar
    33   17   34 1
    34   18   19 ar
    35   18   35 1
    36   19   20 ar
    37   19   36 1
    38   20   21 ar
    39   20   37 1
    40   21   22 1
    41   23   38 1
    42   23   39 1
@<TRIPOS>MOLECULE
ZINC49514686
   39    40     0     0     0
SMALL
USER_CHARGES

@<TRIPOS>ATOM
      1 C1         -0.0187    1.5258    0.0104 C.3       1 <0>        -0.1796
      2 C2          0.0021   -0.0041    0.0020 C.3       1 <0>         0.0752
      3 H1          0.5293   -0.3651    0.8851 H         1 <0>         0.1521
      4 C3          0.7074   -0.4901   -1.2379 C.ar      1 <0>        -0.1319
      5 C4          0.0374   -0.5215   -2.4466 C.ar      1 <0>        -0.1157
      6 C5          0.6841   -0.9667   -3.5841 C.ar      1 <0>        -0.0770
      7 C6          2.0019   -1.3809   -3.5129 C.ar      1 <0>        -0.0705
      8 C7          2.6720   -1.3493   -2.3032 C.ar      1 <0>        -0.0783
      9 C8          2.0261   -0.8990   -1.1673 C.ar      1 <0>        -0.0797
     10 Br1         2.8870   -1.9908   -5.0688 Br        1 <0>        -0.0162
     11 N1         -1.3761   -0.5125    0.0124 N.4       1 <0>        -0.5087
     12 C9         -2.0260   -0.1396    1.2760 C.3       1 <0>         0.0835
     13 H2         -1.9599    0.9396    1.4139 H         1 <0>         0.1510
     14 C10        -1.3251   -0.8462    2.4380 C.3       1 <0>        -0.1763
     15 C11        -3.4747   -0.5532    1.2369 C.ar      1 <0>        -0.1488
     16 C12        -3.8743   -1.5933    0.4200 C.ar      1 <0>        -0.1469
     17 C13        -5.2072   -1.9742    0.3844 C.ar      1 <0>         0.1234
     18 C14        -6.1393   -1.3109    1.1690 C.ar      1 <0>        -0.1057
     19 C15        -5.7398   -0.2711    1.9855 C.ar      1 <0>        -0.1099
     20 C16        -4.4056    0.1064    2.0251 C.ar      1 <0>         0.1303
     21 O1         -4.0113    1.1265    2.8333 O.3       1 <0>        -0.4903
     22 O2         -5.6007   -2.9976   -0.4199 O.3       1 <0>        -0.4930
     23 H3          1.0039    1.9031    0.0027 H         1 <0>         0.1107
     24 H4         -0.5459    1.8868   -0.8726 H         1 <0>         0.0844
     25 H5         -0.5289    1.8773    0.9072 H         1 <0>         0.0868
     26 H6         -0.9917   -0.1984   -2.5020 H         1 <0>         0.1285
     27 H7          0.1604   -0.9915   -4.5284 H         1 <0>         0.1464
     28 H8          3.7009   -1.6726   -2.2472 H         1 <0>         0.1481
     29 H9          2.5505   -0.8704   -0.2235 H         1 <0>         0.1445
     30 H10        -1.8879   -0.1129   -0.7598 H         1 <0>         0.4259
     31 H11        -1.8074   -0.5695    3.3755 H         1 <0>         0.1134
     32 H12        -1.3913   -1.9254    2.3001 H         1 <0>         0.0828
     33 H13        -0.2774   -0.5471    2.4663 H         1 <0>         0.0856
     34 H14        -3.1486   -2.1095   -0.1910 H         1 <0>         0.1272
     35 H15        -7.1775   -1.6073    1.1410 H         1 <0>         0.1481
     36 H16        -6.4656    0.2458    2.5958 H         1 <0>         0.1497
     37 H17        -4.0438    1.9966    2.4127 H         1 <0>         0.3999
     38 H18        -5.5684   -3.8660    0.0043 H         1 <0>         0.4039
     39 H19        -1.3644   -1.5176   -0.0760 H         1 <0>         0.4273
@<TRIPOS>BOND
     1    1    2 1
     2    1   23 1
     3    1   24 1
     4    1   25 1
     5    2    3 1
     6    2    4 1
     7    2   11 1
     8    4    9 ar
     9    4    5 ar
    10    5    6 ar
    11    5   26 1
    12    6    7 ar
    13    6   27 1
    14    7    8 ar
    15    7   10 1
    16    8    9 ar
    17    8   28 1
    18    9   29 1
    19   11   12 1
    20   11   30 1
    21   11   39 1
    22   12   13 1
    23   12   14 1
    24   12   15 1
    25   14   31 1
    26   14   32 1
    27   14   33 1
    28   15   20 ar
    29   15   16 ar
    30   16   17 ar
    31   16   34 1
    32   17   18 ar
    33   17   22 1
    34   18   19 ar
    35   18   35 1
    36   19   20 ar
    37   19   36 1
    38   20   21 1
    39   21   37 1
    40   22   38 1
@<TRIPOS>MOLECULE
ZINC18165198
   39    41     0     0     0
SMALL
USER_CHARGES

@<TRIPOS>ATOM
      1 C1         -0.0184    1.5028    0.0103 C.3       1 <0>        -0.1217
      2 C2          0.0021   -0.0041    0.0020 C.ar      1 <0>        -0.0615
      3 C3          0.0057   -0.6861   -1.2020 C.ar      1 <0>        -0.1218
      4 C4          0.0249   -2.0652   -1.2171 C.ar      1 <0>        -0.0885
      5 C5          0.0406   -2.7733   -0.0132 C.ar      1 <0>        -0.0631
      6 C6          0.0368   -2.0783    1.1983 C.ar      1 <0>        -0.0586
      7 C7          0.0229   -0.6991    1.1984 C.ar      1 <0>        -0.1221
      8 C8          0.0606   -4.2495   -0.0214 C.2       1 <0>         0.2439
      9 C9         -0.7217   -5.0945    0.7678 C.2       1 <0>        -0.1185
     10 C10        -0.3699   -6.4239    0.4254 C.2       1 <0>         0.3711
     11 N1          0.5548   -6.3786   -0.5003 N.2       1 <0>        -0.3506
     12 N2          0.8400   -5.0428   -0.8029 N.pl3     1 <0>        -0.4385
     13 H1          1.4859   -4.7350   -1.4578 H         1 <0>         0.4510
     14 N3         -0.9157   -7.5830    0.9802 N.pl3     1 <0>        -0.8215
     15 N4         -1.6456   -4.7142    1.6901 N.2       1 <0>        -0.1386
     16 N5         -2.3009   -5.6064    2.3525 N.2       1 <0>        -0.2810
     17 C11        -3.2301   -5.2239    3.2802 C.ar      1 <0>         0.0837
     18 C12        -3.4763   -3.8674    3.5091 C.ar      1 <0>        -0.1094
     19 C13        -4.4145   -3.4884    4.4460 C.ar      1 <0>        -0.1109
     20 C14        -5.1117   -4.4474    5.1596 C.ar      1 <0>        -0.0963
     21 C15        -4.8735   -5.7935    4.9385 C.ar      1 <0>        -0.0377
     22 C16        -3.9415   -6.1873    3.9992 C.ar      1 <0>        -0.0354
     23 C17        -3.6879   -7.6525    3.7546 C.3       1 <0>        -0.1164
     24 Cl1        -5.7534   -6.9883    5.8396 Cl        1 <0>        -0.0597
     25 H2          1.0042    1.8801    0.0026 H         1 <0>         0.0756
     26 H3         -0.5455    1.8639   -0.8728 H         1 <0>         0.0701
     27 H4         -0.5286    1.8543    0.9071 H         1 <0>         0.0706
     28 H5         -0.0068   -0.1373   -2.1321 H         1 <0>         0.1301
     29 H6          0.0273   -2.5962   -2.1575 H         1 <0>         0.1261
     30 H7          0.0485   -2.6196    2.1328 H         1 <0>         0.1310
     31 H8          0.0240   -0.1603    2.1344 H         1 <0>         0.1308
     32 H9         -1.6000   -7.5175    1.6646 H         1 <0>         0.4225
     33 H10        -0.6106   -8.4539    0.6813 H         1 <0>         0.4043
     34 H11        -2.9326   -3.1175    2.9537 H         1 <0>         0.1397
     35 H12        -4.6054   -2.4403    4.6235 H         1 <0>         0.1351
     36 H13        -5.8448   -4.1446    5.8925 H         1 <0>         0.1366
     37 H14        -2.8994   -8.0011    4.4216 H         1 <0>         0.0789
     38 H15        -4.6011   -8.2162    3.9457 H         1 <0>         0.0751
     39 H16        -3.3798   -7.8001    2.7195 H         1 <0>         0.0755
@<TRIPOS>BOND
     1    1    2 1
     2    1   25 1
     3    1   26 1
     4    1   27 1
     5    2    7 ar
     6    2    3 ar
     7    3    4 ar
     8    3   28 1
     9    4    5 ar
    10    4   29 1
    11    5    6 ar
    12    5    8 1
    13    6    7 ar
    14    6   30 1
    15    7   31 1
    16    8   12 1
    17    8    9 2
    18    9   10 1
    19    9   15 1
    20   10   11 2
    21   10   14 1
    22   11   12 1
    23   12   13 1
    24   14   32 1
    25   14   33 1
    26   15   16 2
    27   16   17 1
    28   17   22 ar
    29   17   18 ar
    30   18   19 ar
    31   18   34 1
    32   19   20 ar
    33   19   35 1
    34   20   21 ar
    35   20   36 1
    36   21   22 ar
    37   21   24 1
    38   22   23 1
    39   23   37 1
    40   23   38 1
    41   23   39 1
@<TRIPOS>MOLECULE
ZINC04242618
   29    30     0     0     0
SMALL
USER_CHARGES
(4-chlorophenyl)-(p-tolyl)methanol
@<TRIPOS>ATOM
      1 C1         -0.0763    5.7740    0.0320 C.3       1 <0>        -0.1181
      2 C2         -0.0559    4.2672    0.0247 C.ar      1 <0>        -0.0816
      3 C3          1.1505    3.5924    0.0100 C.ar      1 <0>        -0.1175
      4 C4          1.1693    2.2102    0.0028 C.ar      1 <0>        -0.1019
      5 C5         -0.0184    1.5028    0.0103 C.ar      1 <0>        -0.1206
      6 C6         -1.2248    2.1776    0.0197 C.ar      1 <0>        -0.1048
      7 C7         -1.2435    3.5598    0.0322 C.ar      1 <0>        -0.1166
      8 C8          0.0021   -0.0041    0.0020 C.3       1 <0>         0.1907
      9 H1          0.9692   -0.3523   -0.3606 H         1 <0>         0.1188
     10 C9         -0.2244   -0.5172    1.4007 C.ar      1 <0>        -0.1067
     11 C10        -1.5117   -0.6639    1.8829 C.ar      1 <0>        -0.0981
     12 C11        -1.7202   -1.1398    3.1636 C.ar      1 <0>        -0.1052
     13 C12        -0.6401   -1.4588    3.9672 C.ar      1 <0>        -0.0338
     14 C13         0.6481   -1.3064    3.4861 C.ar      1 <0>        -0.1062
     15 C14         0.8553   -0.8357    2.2032 C.ar      1 <0>        -0.0946
     16 Cl1        -0.9010   -2.0504    5.5782 Cl        1 <0>        -0.0666
     17 O1         -1.0317   -0.4897   -0.8568 O.3       1 <0>        -0.5446
     18 H2         -0.0911    6.1422   -0.9938 H         1 <0>         0.0726
     19 H3         -0.9662    6.1228    0.5560 H         1 <0>         0.0675
     20 H4          0.8135    6.1470    0.5391 H         1 <0>         0.0676
     21 H5          2.0784    4.1450    0.0037 H         1 <0>         0.1247
     22 H6          2.1118    1.6830   -0.0091 H         1 <0>         0.1243
     23 H7         -2.1527    1.6249    0.0211 H         1 <0>         0.1182
     24 H8         -2.1860    4.0870    0.0434 H         1 <0>         0.1242
     25 H9         -2.3547   -0.4107    1.2571 H         1 <0>         0.1284
     26 H10        -2.7260   -1.2586    3.5386 H         1 <0>         0.1359
     27 H11         1.4917   -1.5549    4.1130 H         1 <0>         0.1364
     28 H12         1.8608   -0.7164    1.8276 H         1 <0>         0.1341
     29 H13        -1.9216   -0.2179   -0.5938 H         1 <0>         0.3737
@<TRIPOS>BOND
     1    1    2 1
     2    1   18 1
     3    1   19 1
     4    1   20 1
     5    2    7 ar
     6    2    3 ar
     7    3    4 ar
     8    3   21 1
     9    4    5 ar
    10    4   22 1
    11    5    6 ar
    12    5    8 1
    13    6    7 ar
    14    6   23 1
    15    7   24 1
    16    8    9 1
    17    8   10 1
    18    8   17 1
    19   10   15 ar
    20   10   11 ar
    21   11   12 ar
    22   11   25 1
    23   12   13 ar
    24   12   26 1
    25   13   14 ar
    26   13   16 1
    27   14   15 ar
    28   14   27 1
    29   15   28 1
    30   17   29 1
@<TRIPOS>MOLECULE
ZINC19965012
   34    36     0     0     0
SMALL
USER_CHARGES
(1S)-N-(o-tolyl)indan-1-amine
@<TRIPOS>ATOM
      1 C1          5.2666    3.0017   -2.9033 C.3       1 <0>        -0.1077
      2 C2          5.2987    2.4674   -1.4945 C.ar      1 <0>        -0.1656
      3 C3          6.2939    1.5900   -1.1103 C.ar      1 <0>        -0.0726
      4 C4          6.3207    1.0949    0.1804 C.ar      1 <0>        -0.1794
      5 C5          5.3549    1.4800    1.0924 C.ar      1 <0>        -0.0762
      6 C6          4.3605    2.3612    0.7165 C.ar      1 <0>        -0.2019
      7 C7          4.3306    2.8607   -0.5796 C.ar      1 <0>         0.2239
      8 N1          3.3258    3.7518   -0.9633 N.pl3     1 <0>        -0.7513
      9 C8          2.3019    4.1609    0.0014 C.3       1 <0>         0.1888
     10 H1          2.8259    4.2034    0.9677 H         1 <0>         0.0933
     11 C9          1.6690    5.5022   -0.4258 C.3       1 <0>        -0.1219
     12 C10         0.2032    5.3364    0.0281 C.3       1 <0>        -0.0788
     13 C11        -0.0467    3.8435    0.0229 C.ar      1 <0>        -0.0902
     14 C12         1.1595    3.1678    0.0076 C.ar      1 <0>        -0.1147
     15 C13         1.1739    1.7834    0.0004 C.ar      1 <0>        -0.0896
     16 C14        -0.0126    1.0758    0.0080 C.ar      1 <0>        -0.1240
     17 C15        -1.2184    1.7512    0.0173 C.ar      1 <0>        -0.1140
     18 C16        -1.2347    3.1325    0.0304 C.ar      1 <0>        -0.1105
     19 H2          6.1066    2.5799   -3.4746 H         1 <0>         0.0660
     20 H3          5.3518    4.0982   -2.8816 H         1 <0>         0.0621
     21 H4          4.3179    2.7170   -3.3819 H         1 <0>         0.0618
     22 H5          7.0496    1.2872   -1.8200 H         1 <0>         0.1185
     23 H6          7.0974    0.4055    0.4769 H         1 <0>         0.1164
     24 H7          5.3788    1.0914    2.0998 H         1 <0>         0.1179
     25 H8          3.6066    2.6616    1.4292 H         1 <0>         0.1184
     26 H9          3.3033    4.1464   -1.9898 H         1 <0>         0.4145
     27 H10         2.1838    6.3296    0.0845 H         1 <0>         0.0843
     28 H11         1.7685    5.6243   -1.5145 H         1 <0>         0.0794
     29 H12         0.0804    5.7636    1.0343 H         1 <0>         0.0855
     30 H13        -0.4602    5.8600   -0.6760 H         1 <0>         0.0797
     31 H14         2.1157    1.2550   -0.0114 H         1 <0>         0.1203
     32 H15         0.0021   -0.0041    0.0020 H         1 <0>         0.1230
     33 H16        -2.1469    1.1996    0.0186 H         1 <0>         0.1240
     34 H17        -2.1773    3.6596    0.0422 H         1 <0>         0.1204
@<TRIPOS>BOND
     1    1    2 1
     2    1   19 1
     3    1   20 1
     4    1   21 1
     5    2    7 ar
     6    2    3 ar
     7    3    4 ar
     8    3   22 1
     9    4    5 ar
    10    4   23 1
    11    5    6 ar
    12    5   24 1
    13    6    7 ar
    14    6   25 1
    15    7    8 1
    16    8    9 1
    17    8   26 1
    18    9   10 1
    19    9   14 1
    20    9   11 1
    21   11   12 1
    22   11   27 1
    23   11   28 1
    24   12   13 1
    25   12   29 1
    26   12   30 1
    27   13   18 ar
    28   13   14 ar
    29   14   15 ar
    30   15   16 ar
    31   15   31 1
    32   16   17 ar
    33   16   32 1
    34   17   18 ar
    35   17   33 1
    36   18   34 1
@<TRIPOS>MOLECULE
ZINC38637063
   44    45     0     0     0
SMALL
USER_CHARGES

@<TRIPOS>ATOM
      1 C1          0.6213    1.7427    0.5240 C.3       1 <0>        -0.1477
      2 C2          0.5206    0.2261    0.3399 C.3       1 <0>        -0.0928
      3 H1          1.1094   -0.0812   -0.5239 H         1 <0>         0.0673
      4 C3         -0.9701   -0.1907    0.1580 C.3       1 <0>        -0.1210
      5 C4         -0.9996   -1.1696   -1.0224 C.3       1 <0>        -0.1103
      6 C5         -1.4169   -2.5702   -0.6685 C.3       1 <0>        -0.0800
      7 H2         -0.6827   -3.2914   -1.0650 H         1 <0>         0.0714
      8 C6         -1.8086   -2.9510    0.7263 C.3       1 <0>        -0.0834
      9 H3         -2.3047   -2.1456    1.2644 H         1 <0>         0.0968
     10 C7         -2.8329   -3.9154    0.0901 C.3       1 <0>        -0.1369
     11 C8         -2.8354   -2.9583   -1.1176 C.3       1 <0>        -0.0901
     12 C9         -3.8821   -1.8510   -1.0052 C.3       1 <0>        -0.1260
     13 C10        -2.8780   -3.6840   -2.4649 C.3       1 <0>        -0.1359
     14 C11        -0.8022   -3.6773    1.6050 C.3       1 <0>        -0.1135
     15 H4         -0.1516   -4.2896    0.9804 H         1 <0>         0.0737
     16 C12         0.0508   -2.6709    2.3897 C.3       1 <0>         0.1141
     17 H5          0.6332   -3.2179    3.1427 H         1 <0>         0.0474
     18 C13         1.0111   -1.9939    1.4033 C.3       1 <0>        -0.1172
     19 C14         1.0294   -0.4889    1.6024 C.3       1 <0>        -0.1107
     20 O1         -0.7954   -1.7352    3.0508 O.3       1 <0>        -0.5534
     21 C15        -1.5452   -4.5772    2.5960 C.3       1 <0>        -0.1512
     22 H6          1.6634    2.0213    0.6809 H         1 <0>         0.0504
     23 H7          0.2417    2.2429   -0.3670 H         1 <0>         0.0521
     24 H8          0.0305    2.0437    1.3891 H         1 <0>         0.0541
     25 H9         -1.3467   -0.6552    1.0643 H         1 <0>         0.0937
     26 H10        -1.5728    0.6923   -0.0763 H         1 <0>         0.0532
     27 H11        -1.6427   -0.7672   -1.8043 H         1 <0>         0.0594
     28 H12         0.0133   -1.2176   -1.4485 H         1 <0>         0.0528
     29 H13        -2.4276   -4.8988   -0.1415 H         1 <0>         0.0774
     30 H14        -3.7856   -3.9519    0.6151 H         1 <0>         0.0649
     31 H15        -3.5830   -1.0043   -1.6230 H         1 <0>         0.0585
     32 H16        -4.8467   -2.2269   -1.3462 H         1 <0>         0.0549
     33 H17        -3.9632   -1.5319    0.0339 H         1 <0>         0.0569
     34 H18        -2.2952   -4.6029   -2.4012 H         1 <0>         0.0533
     35 H19        -3.9111   -3.9255   -2.7149 H         1 <0>         0.0538
     36 H20        -2.4580   -3.0402   -3.2377 H         1 <0>         0.0540
     37 H21         2.0241   -2.3884    1.5595 H         1 <0>         0.0604
     38 H22         0.7174   -2.2283    0.3770 H         1 <0>         0.0796
     39 H23         2.0685   -0.1732    1.7760 H         1 <0>         0.0432
     40 H24         0.4430   -0.1812    2.4583 H         1 <0>         0.0856
     41 H25        -1.3473   -2.1246    3.7427 H         1 <0>         0.3735
     42 H26        -2.1417   -5.3064    2.0479 H         1 <0>         0.0602
     43 H27        -0.8237   -5.0976    3.2258 H         1 <0>         0.0536
     44 H28        -2.1993   -3.9681    3.2200 H         1 <0>         0.0541
@<TRIPOS>BOND
     1    1    2 1
     2    1   22 1
     3    1   23 1
     4    1   24 1
     5    2    3 1
     6    2   19 1
     7    2    4 1
     8    4    5 1
     9    4   25 1
    10    4   26 1
    11    5    6 1
    12    5   27 1
    13    5   28 1
    14    6    7 1
    15    6   11 1
    16    6    8 1
    17    8    9 1
    18    8   10 1
    19    8   14 1
    20   10   11 1
    21   10   29 1
    22   10   30 1
    23   11   12 1
    24   11   13 1
    25   12   31 1
    26   12   32 1
    27   12   33 1
    28   13   34 1
    29   13   35 1
    30   13   36 1
    31   14   15 1
    32   14   16 1
    33   14   21 1
    34   16   17 1
    35   16   18 1
    36   16   20 1
    37   18   19 1
    38   18   37 1
    39   18   38 1
    40   19   39 1
    41   19   40 1
    42   20   41 1
    43   21   42 1
    44   21   43 1
    45   21   44 1
@<TRIPOS>MOLECULE
ZINC43763867
   45    47     0     0     0
SMALL
USER_CHARGES

@<TRIPOS>ATOM
      1 C1         -0.3096    1.6707   -0.5705 C.3       1 <0>        -0.1484
      2 C2         -0.1357    0.1875   -0.2378 C.3       1 <0>        -0.0912
      3 H1         -1.1078   -0.2950   -0.1363 H         1 <0>         0.0813
      4 C3          0.7104   -0.5211   -1.3393 C.3       1 <0>        -0.0935
      5 H2          0.4880   -0.2365   -2.3677 H         1 <0>         0.0940
      6 C4          2.1634   -0.2117   -0.8328 C.3       1 <0>        -0.1252
      7 C5          1.9574   -0.7753    0.6175 C.3       1 <0>        -0.0938
      8 H3          2.8201   -0.7229    1.2816 H         1 <0>         0.0941
      9 C6          0.6875    0.0192    1.0598 C.3       1 <0>        -0.0585
     10 C7          1.0816    1.3863    1.6225 C.3       1 <0>        -0.1412
     11 C8         -0.1079   -0.7765    2.0966 C.3       1 <0>        -0.1499
     12 C9          1.4291   -2.2071    0.2980 C.3       1 <0>        -0.1242
     13 C10         0.5860   -2.0402   -1.0103 C.3       1 <0>        -0.0807
     14 H4          1.0115   -2.6394   -1.8152 H         1 <0>         0.0706
     15 C11        -0.8787   -2.4177   -0.7796 C.3       1 <0>        -0.0828
     16 H5         -1.2476   -1.9133    0.1135 H         1 <0>         0.0839
     17 C12        -0.9917   -3.9321   -0.5934 C.3       1 <0>        -0.1181
     18 C13        -2.4564   -4.3096   -0.3627 C.3       1 <0>        -0.1177
     19 C14        -3.2901   -3.8808   -1.5718 C.3       1 <0>        -0.1523
     20 C15        -3.1770   -2.3664   -1.7580 C.3       1 <0>         0.1043
     21 H6         -3.5459   -1.8619   -0.8649 H         1 <0>         0.0517
     22 C16        -1.7124   -1.9888   -1.9887 C.3       1 <0>        -0.1076
     23 O1         -3.9557   -1.9658   -2.8872 O.3       1 <0>        -0.5690
     24 H7          0.6699    2.1411   -0.6564 H         1 <0>         0.0579
     25 H8         -0.8449    1.7709   -1.5148 H         1 <0>         0.0503
     26 H9         -0.8779    2.1567    0.2226 H         1 <0>         0.0541
     27 H10         2.9171   -0.7722   -1.3859 H         1 <0>         0.0663
     28 H11         2.3763    0.8573   -0.8296 H         1 <0>         0.0688
     29 H12         0.1822    1.9508    1.8687 H         1 <0>         0.0554
     30 H13         1.6824    1.2497    2.5216 H         1 <0>         0.0498
     31 H14         1.6608    1.9324    0.8779 H         1 <0>         0.0585
     32 H15        -0.4723   -1.6993    1.6450 H         1 <0>         0.0668
     33 H16         0.5358   -1.0157    2.9430 H         1 <0>         0.0543
     34 H17        -0.9540   -0.1815    2.4404 H         1 <0>         0.0517
     35 H18         2.2614   -2.8910    0.1320 H         1 <0>         0.0600
     36 H19         0.7955   -2.5679    1.1082 H         1 <0>         0.0751
     37 H20        -0.6228   -4.4365   -1.4865 H         1 <0>         0.0630
     38 H21        -0.3978   -4.2376    0.2680 H         1 <0>         0.0650
     39 H22        -2.5369   -5.3885   -0.2301 H         1 <0>         0.0650
     40 H23        -2.8253   -3.8052    0.5304 H         1 <0>         0.0619
     41 H24        -2.9212   -4.3852   -2.4649 H         1 <0>         0.0700
     42 H25        -4.3335   -4.1497   -1.4075 H         1 <0>         0.0623
     43 H26        -1.6318   -0.9099   -2.1213 H         1 <0>         0.0735
     44 H27        -1.3435   -2.4933   -2.8817 H         1 <0>         0.0677
     45 H28        -4.8968   -2.1743   -2.8100 H         1 <0>         0.3771
@<TRIPOS>BOND
     1    1    2 1
     2    1   24 1
     3    1   25 1
     4    1   26 1
     5    2    3 1
     6    2    9 1
     7    2    4 1
     8    4    5 1
     9    4   13 1
    10    4    6 1
    11    6    7 1
    12    6   27 1
    13    6   28 1
    14    7    8 1
    15    7    9 1
    16    7   12 1
    17    9   10 1
    18    9   11 1
    19   10   29 1
    20   10   30 1
    21   10   31 1
    22   11   32 1
    23   11   33 1
    24   11   34 1
    25   12   13 1
    26   12   35 1
    27   12   36 1
    28   13   14 1
    29   13   15 1
    30   15   16 1
    31   15   22 1
    32   15   17 1
    33   17   18 1
    34   17   37 1
    35   17   38 1
    36   18   19 1
    37   18   39 1
    38   18   40 1
    39   19   20 1
    40   19   41 1
    41   19   42 1
    42   20   21 1
    43   20   22 1
    44   20   23 1
    45   22   43 1
    46   22   44 1
    47   23   45 1
@<TRIPOS>MOLECULE
ZINC55202103
   32    33     0     0     0
SMALL
USER_CHARGES

@<TRIPOS>ATOM
      1 C1         -0.0184    1.5028    0.0103 C.3       1 <0>        -0.1165
      2 C2          0.0021   -0.0041    0.0020 C.ar      1 <0>        -0.0895
      3 C3          0.0058   -0.6883   -1.1995 C.ar      1 <0>        -0.0896
      4 C4          0.0250   -2.0699   -1.2083 C.ar      1 <0>        -0.1450
      5 C5          0.0405   -2.7693   -0.0132 C.ar      1 <0>         0.1040
      6 C6          0.0368   -2.0831    1.1892 C.ar      1 <0>        -0.1445
      7 C7          0.0229   -0.7010    1.1955 C.ar      1 <0>        -0.0840
      8 C8          0.0531   -2.8428    2.4906 C.3       1 <0>         0.1946
      9 H1         -0.5244   -3.7609    2.3827 H         1 <0>         0.1230
     10 C9          1.4750   -3.1837    2.8554 C.ar      1 <0>        -0.0928
     11 C10         2.2517   -2.2671    3.5397 C.ar      1 <0>        -0.1146
     12 C11         3.5560   -2.5784    3.8750 C.ar      1 <0>        -0.0883
     13 C12         4.0855   -3.8065    3.5260 C.ar      1 <0>        -0.1147
     14 C13         3.3088   -4.7251    2.8409 C.ar      1 <0>         0.1007
     15 C14         2.0002   -4.4144    2.5109 C.ar      1 <0>        -0.1346
     16 F1          3.8254   -5.9257    2.4989 F         1 <0>        -0.1347
     17 C15         5.5079   -4.1453    3.8909 C.3       1 <0>        -0.1171
     18 O1         -0.5225   -2.0362    3.5202 O.3       1 <0>        -0.5393
     19 F2          0.0588   -4.1201   -0.0207 F         1 <0>        -0.1356
     20 H2          1.0042    1.8801    0.0026 H         1 <0>         0.0743
     21 H3         -0.5455    1.8639   -0.8728 H         1 <0>         0.0706
     22 H4         -0.5286    1.8543    0.9071 H         1 <0>         0.0701
     23 H5         -0.0067   -0.1426   -2.1314 H         1 <0>         0.1351
     24 H6          0.0275   -2.6041   -2.1469 H         1 <0>         0.1389
     25 H7          0.0245   -0.1655    2.1334 H         1 <0>         0.1312
     26 H8          1.8390   -1.3069    3.8122 H         1 <0>         0.1271
     27 H9          4.1617   -1.8616    4.4095 H         1 <0>         0.1361
     28 H10         1.3920   -5.1320    1.9803 H         1 <0>         0.1389
     29 H11         5.5282   -4.6198    4.8719 H         1 <0>         0.0767
     30 H12         5.9206   -4.8282    3.1483 H         1 <0>         0.0712
     31 H13         6.1036   -3.2328    3.9162 H         1 <0>         0.0741
     32 H14        -0.0586   -1.2012    3.6713 H         1 <0>         0.3743
@<TRIPOS>BOND
     1    1    2 1
     2    1   20 1
     3    1   21 1
     4    1   22 1
     5    2    7 ar
     6    2    3 ar
     7    3    4 ar
     8    3   23 1
     9    4    5 ar
    10    4   24 1
    11    5    6 ar
    12    5   19 1
    13    6    7 ar
    14    6    8 1
    15    7   25 1
    16    8    9 1
    17    8   10 1
    18    8   18 1
    19   10   15 ar
    20   10   11 ar
    21   11   12 ar
    22   11   26 1
    23   12   13 ar
    24   12   27 1
    25   13   14 ar
    26   13   17 1
    27   14   15 ar
    28   14   16 1
    29   15   28 1
    30   17   29 1
    31   17   30 1
    32   17   31 1
    33   18   32 1
@<TRIPOS>MOLECULE
ZINC19563122
   59    63     0     0     0
SMALL
USER_CHARGES
(4S)-1'-[(2S)-2-hydroxy-2-(6-methoxy-1H-indol-3-yl)ethyl]spiro[chroman-2,4'-piperidine]-4-ol
@<TRIPOS>ATOM
      1 C1         -0.0496    1.0698    0.1827 C.3       1 <0>         0.0230
      2 O1         -0.7302    1.5577    1.3407 O.3       1 <0>        -0.3138
      3 C2         -0.8307    2.9067    1.4750 C.ar      1 <0>         0.1539
      4 C3         -0.2807    3.7403    0.5041 C.ar      1 <0>        -0.2115
      5 C4         -0.3728    5.0975    0.6236 C.ar      1 <0>        -0.0452
      6 C5         -1.0226    5.6554    1.7266 C.ar      1 <0>        -0.1307
      7 C6         -1.5805    4.8201    2.7113 C.ar      1 <0>         0.1315
      8 C7         -1.4826    3.4397    2.5708 C.ar      1 <0>        -0.1668
      9 N1         -2.1473    5.6371    3.6638 N.pl3     1 <0>        -0.6008
     10 H1         -2.6480    5.1967    4.5387 H         1 <0>         0.4542
     11 C8         -1.9679    6.9499    3.3171 C.2       1 <0>         0.1199
     12 C9         -1.2962    7.0291    2.1582 C.2       1 <0>        -0.2090
     13 C10        -0.8981    8.2912    1.4373 C.3       1 <0>         0.1860
     14 H2          0.1022    8.1807    0.9932 H         1 <0>         0.0826
     15 C11        -1.9519    8.6291    0.3808 C.3       1 <0>        -0.0347
     16 N2         -1.5789    9.8752   -0.3017 N.4       1 <0>        -0.3976
     17 C12        -0.1987    9.8102   -0.7988 C.3       1 <0>        -0.0133
     18 C13         0.2035   11.1713   -1.3717 C.3       1 <0>        -0.1731
     19 C14        -0.7535   11.5466   -2.5043 C.3       1 <0>         0.1162
     20 C15        -2.1888   11.5570   -1.9746 C.3       1 <0>        -0.1311
     21 C16        -2.5202   10.1835   -1.3859 C.3       1 <0>        -0.0012
     22 C17        -0.3957   12.9378   -3.0384 C.3       1 <0>        -0.1414
     23 C18         1.0744   12.9277   -3.4648 C.3       1 <0>         0.1627
     24 H3          1.7482   12.9412   -2.5954 H         1 <0>         0.0666
     25 C19         1.3466   11.7159   -4.3196 C.ar      1 <0>        -0.1948
     26 C20         2.4830   11.7007   -5.1115 C.ar      1 <0>        -0.0773
     27 C21         2.7659   10.6054   -5.9038 C.ar      1 <0>        -0.1380
     28 C22         1.9125    9.5172   -5.9088 C.ar      1 <0>        -0.0782
     29 C23         0.7784    9.5275   -5.1234 C.ar      1 <0>        -0.1450
     30 C24         0.4895   10.6297   -4.3248 C.ar      1 <0>         0.1281
     31 O2         -0.6388   10.6042   -3.5687 O.3       1 <0>        -0.3071
     32 O3          1.3608   14.1112   -4.2126 O.3       1 <0>        -0.5856
     33 O4         -0.8022    9.3652    2.3750 O.3       1 <0>        -0.5764
     34 H4         -0.0406   -0.0300    0.1989 H         1 <0>         0.1070
     35 H5          0.9845    1.4449    0.1799 H         1 <0>         0.0590
     36 H6         -0.5688    1.4190   -0.7220 H         1 <0>         0.0584
     37 H7          0.2224    3.3101   -0.3493 H         1 <0>         0.1330
     38 H8          0.0556    5.7379   -0.1332 H         1 <0>         0.1196
     39 H9         -1.9104    2.7871    3.3175 H         1 <0>         0.1341
     40 H10        -2.3155    7.7960    3.8914 H         1 <0>         0.1752
     41 H11        -2.0101    7.8121   -0.3534 H         1 <0>         0.1372
     42 H12        -2.9307    8.7559    0.8666 H         1 <0>         0.1416
     43 H13         0.4769    9.5470    0.0284 H         1 <0>         0.1358
     44 H14        -0.1284    9.0460   -1.5869 H         1 <0>         0.1348
     45 H15         0.1521   11.9324   -0.5791 H         1 <0>         0.1090
     46 H16         1.2308   11.1162   -1.7611 H         1 <0>         0.1192
     47 H17        -2.2859   12.3257   -1.1938 H         1 <0>         0.1126
     48 H18        -2.8821   11.7817   -2.7985 H         1 <0>         0.1264
     49 H19        -2.4377    9.4183   -2.1718 H         1 <0>         0.1353
     50 H20        -3.5462   10.1926   -0.9893 H         1 <0>         0.1377
     51 H21        -1.0362   13.1754   -3.9006 H         1 <0>         0.0982
     52 H22        -0.5532   13.6859   -2.2475 H         1 <0>         0.0975
     53 H23         3.1512   12.5493   -5.1091 H         1 <0>         0.1269
     54 H24         3.6531   10.5989   -6.5196 H         1 <0>         0.1321
     55 H25         2.1340    8.6598   -6.5270 H         1 <0>         0.1355
     56 H26         0.1128    8.6770   -5.1281 H         1 <0>         0.1318
     57 H27         2.3739   14.2816   -4.6059 H         1 <0>         0.4171
     58 H28        -0.5210   10.3717    2.0316 H         1 <0>         0.3999
     59 H29        -1.6327   10.6934    0.4316 H         1 <0>         0.4331
@<TRIPOS>BOND
     1    1    2 1
     2    1   34 1
     3    1   35 1
     4    1   36 1
     5    2    3 1
     6    3    8 ar
     7    3    4 ar
     8    4    5 ar
     9    4   37 1
    10    5    6 ar
    11    5   38 1
    12    6   12 1
    13    6    7 ar
    14    7    8 ar
    15    7    9 1
    16    8   39 1
    17    9   10 1
    18    9   11 1
    19   11   12 2
    20   11   40 1
    21   12   13 1
    22   13   14 1
    23   13   15 1
    24   13   33 1
    25   15   16 1
    26   15   41 1
    27   15   42 1
    28   16   21 1
    29   16   17 1
    30   16   59 1
    31   17   18 1
    32   17   43 1
    33   17   44 1
    34   18   19 1
    35   18   45 1
    36   18   46 1
    37   19   31 1
    38   19   20 1
    39   19   22 1
    40   20   21 1
    41   20   47 1
    42   20   48 1
    43   21   49 1
    44   21   50 1
    45   22   23 1
    46   22   51 1
    47   22   52 1
    48   23   24 1
    49   23   25 1
    50   23   32 1
    51   25   30 ar
    52   25   26 ar
    53   26   27 ar
    54   26   53 1
    55   27   28 ar
    56   27   54 1
    57   28   29 ar
    58   28   55 1
    59   29   30 ar
    60   29   56 1
    61   30   31 1
    62   32   57 1
    63   33   58 1
@<TRIPOS>MOLECULE
ZINC46673051
   39    40     0     0     0
SMALL
USER_CHARGES

@<TRIPOS>ATOM
      1 C1         -0.0169    1.3916    0.0097 C.ar      1 <0>        -0.0367
      2 C2          1.1698    2.0950    0.0021 C.ar      1 <0>        -0.0837
      3 C3          2.3779    1.4200   -0.0130 C.ar      1 <0>        -0.0572
      4 C4          2.4039    0.0349   -0.0212 C.ar      1 <0>        -0.0759
      5 C5          1.2235   -0.6799   -0.0137 C.ar      1 <0>        -0.0555
      6 C6          0.0021   -0.0041    0.0020 C.ar      1 <0>        -0.1249
      7 C7         -1.2661   -0.7634    0.0100 C.2       1 <0>         0.5714
      8 O1         -2.3283   -0.1725    0.0234 O.2       1 <0>        -0.5176
      9 N1         -1.2447   -2.1110    0.0026 N.am      1 <0>        -0.7261
     10 C8         -2.5016   -2.8636    0.0106 C.3       1 <0>         0.1358
     11 C9         -2.9867   -3.0351    1.4530 C.3       1 <0>        -0.1615
     12 C10        -4.2563   -3.8892    1.4602 C.3       1 <0>        -0.0023
     13 N2         -3.9677   -5.2061    0.8797 N.4       1 <0>        -0.3718
     14 C11        -3.5708   -5.0549   -0.5254 C.3       1 <0>        -0.0133
     15 C12        -2.2749   -4.2456   -0.6090 C.3       1 <0>        -0.1528
     16 C13        -5.1684   -6.0487    0.9599 C.3       1 <0>        -0.0335
     17 C14        -4.8400   -7.4382    0.4777 C.2       1 <0>         0.5081
     18 O2         -3.7165   -7.7007    0.1040 O.2       1 <0>        -0.5293
     19 N3         -5.7950   -8.3891    0.4617 N.am      1 <0>        -0.8241
     20 Br1         4.0599   -0.8779   -0.0431 Br        1 <0>        -0.0083
     21 I1          4.1747    2.4973   -0.0244 I         1 <0>         0.0095
     22 H1         -0.9587    1.9197    0.0260 H         1 <0>         0.1540
     23 H2          1.1561    3.1749    0.0077 H         1 <0>         0.1512
     24 H3          1.2446   -1.7597   -0.0205 H         1 <0>         0.1410
     25 H4         -0.3971   -2.5826   -0.0080 H         1 <0>         0.4072
     26 H5         -3.2530   -2.3244   -0.5663 H         1 <0>         0.1093
     27 H6         -2.2128   -3.5283    2.0411 H         1 <0>         0.0937
     28 H7         -3.2035   -2.0571    1.8827 H         1 <0>         0.1212
     29 H8         -4.6045   -4.0130    2.4856 H         1 <0>         0.1378
     30 H9         -5.0295   -3.3949    0.8721 H         1 <0>         0.1359
     31 H10        -3.4130   -6.0394   -0.9658 H         1 <0>         0.1532
     32 H11        -4.3587   -4.5358   -1.0711 H         1 <0>         0.1309
     33 H12        -1.9828   -4.1330   -1.6531 H         1 <0>         0.1216
     34 H13        -1.4862   -4.7640   -0.0637 H         1 <0>         0.0972
     35 H14        -5.5117   -6.0944    1.9934 H         1 <0>         0.1635
     36 H15        -5.9533   -5.6231    0.3347 H         1 <0>         0.1624
     37 H16        -6.6936   -8.1792    0.7605 H         1 <0>         0.4145
     38 H17        -5.5837   -9.2835    0.1513 H         1 <0>         0.4247
     39 H18        -3.2179   -5.6426    1.3948 H         1 <0>         0.4302
@<TRIPOS>BOND
     1    1    6 ar
     2    1    2 ar
     3    1   22 1
     4    2    3 ar
     5    2   23 1
     6    3    4 ar
     7    3   21 1
     8    4    5 ar
     9    4   20 1
    10    5    6 ar
    11    5   24 1
    12    6    7 1
    13    7    8 2
    14    7    9 am
    15    9   10 1
    16    9   25 1
    17   10   15 1
    18   10   11 1
    19   10   26 1
    20   11   12 1
    21   11   27 1
    22   11   28 1
    23   12   13 1
    24   12   29 1
    25   12   30 1
    26   13   14 1
    27   13   16 1
    28   13   39 1
    29   14   15 1
    30   14   31 1
    31   14   32 1
    32   15   33 1
    33   15   34 1
    34   16   17 1
    35   16   35 1
    36   16   36 1
    37   17   18 2
    38   17   19 am
    39   19   37 1
    40   19   38 1
@<TRIPOS>MOLECULE
ZINC61594908
   41    42     0     0     0
SMALL
USER_CHARGES

@<TRIPOS>ATOM
      1 C1         -0.8774    0.8336   -0.8191 C.3       1 <0>        -0.1525
      2 C2         -0.6168   -0.6676   -0.6793 C.3       1 <0>        -0.1405
      3 C3          0.0473   -0.9465    0.6705 C.3       1 <0>         0.1172
      4 N1          0.2968   -2.3839    0.8042 N.am      1 <0>        -0.5259
      5 C4         -0.5551   -3.2872    1.3287 C.2       1 <0>         0.6539
      6 O1         -1.6653   -3.0556    1.7739 O.2       1 <0>        -0.5272
      7 N2          0.0445   -4.4942    1.2708 N.am      1 <0>        -0.5363
      8 H1         -0.3288   -5.3360    1.5756 H         1 <0>         0.4611
      9 N3          1.3060   -4.3084    0.6887 N.2       1 <0>        -0.2970
     10 C5          1.4390   -3.0436    0.4104 C.2       1 <0>         0.2357
     11 S1          2.8483   -2.2993   -0.3410 S.3       1 <0>         0.1070
     12 C6          4.0397   -3.6599   -0.4832 C.3       1 <0>        -0.0737
     13 H2          4.1503   -4.1487    0.4847 H         1 <0>         0.1391
     14 C7          5.3732   -3.1156   -0.9264 C.ar      1 <0>        -0.1157
     15 C8          5.4363   -2.1958   -1.9565 C.ar      1 <0>        -0.0968
     16 C9          6.6592   -1.6960   -2.3630 C.ar      1 <0>        -0.0788
     17 C10         7.8199   -2.1163   -1.7390 C.ar      1 <0>        -0.0694
     18 C11         7.7563   -3.0368   -0.7084 C.ar      1 <0>        -0.0809
     19 C12         6.5325   -3.5321   -0.2991 C.ar      1 <0>        -0.1011
     20 Br1         9.4933   -1.4334   -2.2952 Br        1 <0>        -0.0153
     21 C13         3.5353   -4.6739   -1.5120 C.3       1 <0>         0.0323
     22 H3          2.6106   -5.1260   -1.1533 H         1 <0>         0.1583
     23 C14         3.2736   -3.9641   -2.8419 C.3       1 <0>        -0.2029
     24 N4          4.5485   -5.7197   -1.7062 N.4       1 <0>        -0.6323
     25 H4          0.0677    1.3734   -0.7608 H         1 <0>         0.0611
     26 H5         -1.3506    1.0322   -1.7807 H         1 <0>         0.0677
     27 H6         -1.5350    1.1645   -0.0153 H         1 <0>         0.0636
     28 H7         -1.5620   -1.2074   -0.7376 H         1 <0>         0.0740
     29 H8          0.0408   -0.9986   -1.4832 H         1 <0>         0.0684
     30 H9          0.9925   -0.4067    0.7287 H         1 <0>         0.0990
     31 H10        -0.6103   -0.6155    1.4743 H         1 <0>         0.1083
     32 H11         4.5300   -1.8679   -2.4438 H         1 <0>         0.1472
     33 H12         6.7084   -0.9776   -3.1679 H         1 <0>         0.1482
     34 H13         8.6623   -3.3653   -0.2210 H         1 <0>         0.1479
     35 H14         6.4824   -4.2476    0.5083 H         1 <0>         0.1424
     36 H15         2.7986   -4.6571   -3.5363 H         1 <0>         0.0938
     37 H16         2.6172   -3.1101   -2.6749 H         1 <0>         0.1190
     38 H17         4.2185   -3.6194   -3.2618 H         1 <0>         0.0916
     39 H18         4.6738   -6.2306   -0.8452 H         1 <0>         0.4372
     40 H19         4.2445   -6.3520   -2.4313 H         1 <0>         0.4409
     41 H20         5.4231   -5.2947   -1.9754 H         1 <0>         0.4316
@<TRIPOS>BOND
     1    1    2 1
     2    1   25 1
     3    1   26 1
     4    1   27 1
     5    2    3 1
     6    2   28 1
     7    2   29 1
     8    3    4 1
     9    3   30 1
    10    3   31 1
    11    4   10 1
    12    4    5 am
    13    5    6 2
    14    5    7 am
    15    7    8 1
    16    7    9 1
    17    9   10 2
    18   10   11 1
    19   11   12 1
    20   12   13 1
    21   12   14 1
    22   12   21 1
    23   14   19 ar
    24   14   15 ar
    25   15   16 ar
    26   15   32 1
    27   16   17 ar
    28   16   33 1
    29   17   18 ar
    30   17   20 1
    31   18   19 ar
    32   18   34 1
    33   19   35 1
    34   21   22 1
    35   21   23 1
    36   21   24 1
    37   23   36 1
    38   23   37 1
    39   23   38 1
    40   24   39 1
    41   24   40 1
    42   24   41 1
@<TRIPOS>MOLECULE
ZINC67063666
   51    53     0     0     0
SMALL
USER_CHARGES

@<TRIPOS>ATOM
      1 C1         -0.0184    1.5028    0.0103 C.3       1 <0>        -0.1149
      2 C2          0.0021   -0.0041    0.0020 C.2       1 <0>        -0.0030
      3 C3          0.0067   -0.7285   -1.1658 C.2       1 <0>        -0.1849
      4 C4          0.0259   -2.0828   -1.1013 C.2       1 <0>        -0.1942
      5 S1          0.0382   -2.4164    0.5452 S.3       1 <0>         0.1825
      6 C5          0.0233   -0.7477    1.1721 C.2       1 <0>        -0.2798
      7 C6          0.0302   -0.2828    2.5623 C.2       1 <0>         0.6171
      8 O1          0.0163    0.9096    2.8053 O.2       1 <0>        -0.5035
      9 N1          0.0519   -1.1760    3.5714 N.am      1 <0>        -0.5338
     10 N2          0.0584   -0.7317    4.9001 N.am      1 <0>        -0.5172
     11 C7          0.0802   -1.6248    5.9092 C.2       1 <0>         0.7202
     12 O2          0.0859   -1.2392    7.0623 O.2       1 <0>        -0.5558
     13 N3          0.0956   -2.9454    5.6401 N.am      1 <0>        -0.7421
     14 C8          0.1192   -3.9162    6.7370 C.3       1 <0>         0.1494
     15 H1         -0.4675   -3.5352    7.5729 H         1 <0>         0.1150
     16 C9          1.5649   -4.1430    7.1881 C.3       1 <0>        -0.1525
     17 C10         1.5861   -5.2162    8.2804 C.3       1 <0>        -0.1404
     18 C11         0.9386   -6.4947    7.7442 C.3       1 <0>        -0.0165
     19 N4         -0.4493   -6.2183    7.3545 N.4       1 <0>        -0.3766
     20 C12        -0.4750   -5.2426    6.2583 C.3       1 <0>        -0.0198
     21 C13        -1.0901   -7.4646    6.9138 C.3       1 <0>         0.0456
     22 C14        -1.1841   -8.4193    8.0760 C.ar      1 <0>        -0.1633
     23 C15        -0.1526   -9.3043    8.3287 C.ar      1 <0>        -0.0971
     24 C16        -0.2389  -10.1800    9.3947 C.ar      1 <0>        -0.1135
     25 C17        -1.3564  -10.1706   10.2083 C.ar      1 <0>        -0.0826
     26 C18        -2.3875   -9.2851    9.9562 C.ar      1 <0>        -0.1125
     27 C19        -2.2993   -8.4063    8.8927 C.ar      1 <0>        -0.0928
     28 H2          1.0042    1.8801    0.0026 H         1 <0>         0.0828
     29 H3         -0.5455    1.8639   -0.8728 H         1 <0>         0.0733
     30 H4         -0.5286    1.8543    0.9071 H         1 <0>         0.0904
     31 H5         -0.0051   -0.2261   -2.1218 H         1 <0>         0.1470
     32 H6          0.0316   -2.7861   -1.9208 H         1 <0>         0.1953
     33 H7          0.0630   -2.1264    3.3777 H         1 <0>         0.4149
     34 H8          0.0474    0.2187    5.0937 H         1 <0>         0.4524
     35 H9          0.0910   -3.2530    4.7202 H         1 <0>         0.3974
     36 H10         2.1637   -4.4744    6.3398 H         1 <0>         0.0855
     37 H11         1.9737   -3.2129    7.5831 H         1 <0>         0.1029
     38 H12         2.6170   -5.4231    8.5675 H         1 <0>         0.1180
     39 H13         1.0297   -4.8629    9.1486 H         1 <0>         0.0918
     40 H14         1.4958   -6.8472    6.8762 H         1 <0>         0.1308
     41 H15         0.9521   -7.2610    8.5192 H         1 <0>         0.1359
     42 H16        -1.5043   -5.0840    5.9367 H         1 <0>         0.1392
     43 H17         0.1117   -5.6221    5.4217 H         1 <0>         0.1363
     44 H18        -2.0908   -7.2465    6.5409 H         1 <0>         0.1383
     45 H19        -0.4968   -7.9169    6.1191 H         1 <0>         0.1371
     46 H20         0.7205   -9.3116    7.6930 H         1 <0>         0.1313
     47 H21         0.5667  -10.8719    9.5917 H         1 <0>         0.1365
     48 H22        -1.4241  -10.8553   11.0408 H         1 <0>         0.1363
     49 H23        -3.2607   -9.2779   10.5916 H         1 <0>         0.1367
     50 H24        -3.1032   -7.7119    8.6979 H         1 <0>         0.1316
     51 H25        -0.9520   -5.8458    8.1461 H         1 <0>         0.4253
@<TRIPOS>BOND
     1    1    2 1
     2    1   28 1
     3    1   29 1
     4    1   30 1
     5    2    6 2
     6    2    3 1
     7    3    4 2
     8    3   31 1
     9    4    5 1
    10    4   32 1
    11    5    6 1
    12    6    7 1
    13    7    8 2
    14    7    9 am
    15    9   10 1
    16    9   33 1
    17   10   11 am
    18   10   34 1
    19   11   12 2
    20   11   13 am
    21   13   14 1
    22   13   35 1
    23   14   15 1
    24   14   20 1
    25   14   16 1
    26   16   17 1
    27   16   36 1
    28   16   37 1
    29   17   18 1
    30   17   38 1
    31   17   39 1
    32   18   19 1
    33   18   40 1
    34   18   41 1
    35   19   20 1
    36   19   21 1
    37   19   51 1
    38   20   42 1
    39   20   43 1
    40   21   22 1
    41   21   44 1
    42   21   45 1
    43   22   27 ar
    44   22   23 ar
    45   23   24 ar
    46   23   46 1
    47   24   25 ar
    48   24   47 1
    49   25   26 ar
    50   25   48 1
    51   26   27 ar
    52   26   49 1
    53   27   50 1
@<TRIPOS>MOLECULE
ZINC67458868
   59    62     0     0     0
SMALL
USER_CHARGES

@<TRIPOS>ATOM
      1 C1          9.1505   -6.1685    2.0327 C.ar      1 <0>        -0.1069
      2 C2          8.3066   -5.4171    1.2447 C.ar      1 <0>        -0.1017
      3 C3          8.4277   -4.0320    1.2221 C.ar      1 <0>         0.1095
      4 C4          9.4152   -3.4107    2.0078 C.ar      1 <0>        -0.0985
      5 C5         10.2641   -4.1847    2.8015 C.ar      1 <0>        -0.0995
      6 C6         10.1269   -5.5562    2.8096 C.ar      1 <0>         0.0869
      7 F1         10.9454   -6.3090    3.5766 F         1 <0>        -0.1304
      8 C7          9.2820   -1.9725    1.7634 C.2       1 <0>        -0.1218
      9 C8          8.2748   -1.8141    0.8901 C.2       1 <0>        -0.0097
     10 N1          7.7519   -3.0332    0.5550 N.pl3     1 <0>        -0.5869
     11 H1          7.0156   -3.1735   -0.0607 H         1 <0>         0.4207
     12 C9          7.7912   -0.4896    0.3583 C.3       1 <0>         0.0700
     13 N2          8.4438   -0.2106   -0.9278 N.4       1 <0>        -0.5063
     14 C10         7.9724    1.0805   -1.4462 C.3       1 <0>        -0.0284
     15 C11         8.5539    1.3126   -2.8422 C.3       1 <0>         0.1064
     16 C12        10.0825    1.3063   -2.7638 C.3       1 <0>        -0.1331
     17 C13        10.6386    1.8093   -4.1014 C.3       1 <0>        -0.1333
     18 C14        10.2815    3.2882   -4.2551 C.3       1 <0>         0.0898
     19 N3          8.8587    3.4969   -4.0172 N.am      1 <0>        -0.5748
     20 C15         8.0747    2.6349   -3.3687 C.2       1 <0>         0.4959
     21 O1          6.9124    2.9346   -3.1953 O.2       1 <0>        -0.5340
     22 C16         8.2521    4.7314   -4.5216 C.3       1 <0>         0.1048
     23 C17         7.7358    4.5019   -5.9434 C.3       1 <0>        -0.0976
     24 C18         8.9162    4.2207   -6.8754 C.3       1 <0>        -0.1190
     25 C19         8.3999    3.9913   -8.2973 C.3       1 <0>        -0.1196
     26 C20         7.6568    5.2394   -8.7777 C.3       1 <0>        -0.1227
     27 C21         6.4764    5.5206   -7.8457 C.3       1 <0>        -0.1197
     28 C22         6.9927    5.7501   -6.4238 C.3       1 <0>        -0.1131
     29 O2          8.1208    0.2684   -3.7164 O.3       1 <0>        -0.5317
     30 H2          9.0495   -7.2436    2.0503 H         1 <0>         0.1495
     31 H3          7.5517   -5.9034    0.6447 H         1 <0>         0.1391
     32 H4         11.0237   -3.7114    3.4060 H         1 <0>         0.1444
     33 H5          9.8806   -1.1881    2.2026 H         1 <0>         0.1623
     34 H6          6.7110   -0.5274    0.2170 H         1 <0>         0.1435
     35 H7          8.0372    0.2991    1.0693 H         1 <0>         0.1586
     36 H8          9.4437   -0.1757   -0.7970 H         1 <0>         0.4306
     37 H9          6.8839    1.0738   -1.5025 H         1 <0>         0.1516
     38 H10         8.2968    1.8799   -0.7800 H         1 <0>         0.1495
     39 H11        10.4114    1.9640   -1.9591 H         1 <0>         0.1007
     40 H12        10.4363    0.2923   -2.5773 H         1 <0>         0.0881
     41 H13        11.7221    1.6914   -4.1146 H         1 <0>         0.1014
     42 H14        10.1964    1.2395   -4.9187 H         1 <0>         0.0887
     43 H15        10.8564    3.8741   -3.5379 H         1 <0>         0.0786
     44 H16        10.5298    3.6158   -5.2646 H         1 <0>         0.0990
     45 H17         7.4224    5.0187   -3.8757 H         1 <0>         0.0942
     46 H18         8.9982    5.5259   -4.5298 H         1 <0>         0.0867
     47 H19         7.0565    3.6495   -5.9502 H         1 <0>         0.0727
     48 H20         9.5955    5.0731   -6.8687 H         1 <0>         0.0649
     49 H21         9.4456    3.3315   -6.5332 H         1 <0>         0.0616
     50 H22         9.2408    3.7910   -8.9613 H         1 <0>         0.0637
     51 H23         7.7206    3.1389   -8.3040 H         1 <0>         0.0594
     52 H24         8.3361    6.0918   -8.7710 H         1 <0>         0.0635
     53 H25         7.2890    5.0760   -9.7907 H         1 <0>         0.0640
     54 H26         5.9470    6.4098   -8.1879 H         1 <0>         0.0663
     55 H27         5.7971    4.6682   -7.8524 H         1 <0>         0.0609
     56 H28         6.1518    5.9503   -5.7598 H         1 <0>         0.0653
     57 H29         7.6720    6.6025   -6.4171 H         1 <0>         0.0660
     58 H30         7.1604    0.2093   -3.8129 H         1 <0>         0.3993
     59 H31         8.2160   -0.9407   -1.5859 H         1 <0>         0.4305
@<TRIPOS>BOND
     1    1    6 ar
     2    1    2 ar
     3    1   30 1
     4    2    3 ar
     5    2   31 1
     6    3   10 1
     7    3    4 ar
     8    4    5 ar
     9    4    8 1
    10    5    6 ar
    11    5   32 1
    12    6    7 1
    13    8    9 2
    14    8   33 1
    15    9   10 1
    16    9   12 1
    17   10   11 1
    18   12   13 1
    19   12   34 1
    20   12   35 1
    21   13   14 1
    22   13   36 1
    23   13   59 1
    24   14   15 1
    25   14   37 1
    26   14   38 1
    27   15   20 1
    28   15   16 1
    29   15   29 1
    30   16   17 1
    31   16   39 1
    32   16   40 1
    33   17   18 1
    34   17   41 1
    35   17   42 1
    36   18   19 1
    37   18   43 1
    38   18   44 1
    39   19   20 am
    40   19   22 1
    41   20   21 2
    42   22   23 1
    43   22   45 1
    44   22   46 1
    45   23   28 1
    46   23   24 1
    47   23   47 1
    48   24   25 1
    49   24   48 1
    50   24   49 1
    51   25   26 1
    52   25   50 1
    53   25   51 1
    54   26   27 1
    55   26   52 1
    56   26   53 1
    57   27   28 1
    58   27   54 1
    59   27   55 1
    60   28   56 1
    61   28   57 1
    62   29   58 1
@<TRIPOS>MOLECULE
ZINC04741628
   48    52     0     0     0
SMALL
USER_CHARGES
(4-benzyloxyphenyl)BLAHamine
@<TRIPOS>ATOM
      1 C1         -7.0298    5.5692    0.0969 C.ar      1 <0>        -0.1021
      2 C2         -6.4873    5.1617   -1.1075 C.ar      1 <0>        -0.1214
      3 C3         -5.3807    4.3333   -1.1221 C.ar      1 <0>        -0.0942
      4 C4         -4.8166    3.9125    0.0677 C.ar      1 <0>        -0.1088
      5 C5         -5.3622    4.3159    1.2721 C.ar      1 <0>        -0.0938
      6 C6         -6.4653    5.1488    1.2867 C.ar      1 <0>        -0.1210
      7 C7         -3.6105    3.0091    0.0518 C.3       1 <0>         0.1016
      8 O1         -2.4216    3.8019    0.0452 O.3       1 <0>        -0.2996
      9 C8         -1.2366    3.1368    0.0307 C.ar      1 <0>         0.1722
     10 C9         -1.2185    1.7496    0.0173 C.ar      1 <0>        -0.2042
     11 C10        -0.0126    1.0758    0.0080 C.ar      1 <0>        -0.0336
     12 C11         1.1757    1.7828    0.0004 C.ar      1 <0>        -0.2033
     13 C12         1.1603    3.1653    0.0084 C.ar      1 <0>        -0.0469
     14 C13        -0.0430    3.8438    0.0236 C.ar      1 <0>        -0.1480
     15 C14         2.4897    1.0452   -0.0161 C.3       1 <0>         0.4252
     16 H1          2.3284    0.0264   -0.3683 H         1 <0>         0.1445
     17 C15         4.4371    2.4192   -0.5346 C.cat     1 <0>         0.7390
     18 N1          4.7777    2.5831    0.7952 N.pl3     1 <0>        -0.5769
     19 C16         4.1384    1.7588    1.7115 C.2       1 <0>         0.4463
     20 N2          3.0434    1.0092    1.3374 N.pl3     1 <0>        -0.5098
     21 C17         2.6469    0.3019    2.4346 C.ar      1 <0>         0.0953
     22 C18         1.6186   -0.6071    2.6536 C.ar      1 <0>        -0.1150
     23 C19         1.5102   -1.1436    3.9264 C.ar      1 <0>        -0.0732
     24 C20         2.3802   -0.7971    4.9457 C.ar      1 <0>        -0.1193
     25 C21         3.4109    0.1051    4.7542 C.ar      1 <0>        -0.0411
     26 C22         3.5405    0.6593    3.4760 C.ar      1 <0>         0.0533
     27 N3          4.4181    1.5478    2.9665 N.2       1 <0>        -0.4352
     28 N4          5.2191    3.0201   -1.4925 N.pl3     1 <0>        -0.7944
     29 H2         -7.8943    6.2164    0.1083 H         1 <0>         0.1285
     30 H3         -6.9283    5.4901   -2.0370 H         1 <0>         0.1286
     31 H4         -4.9572    4.0146   -2.0630 H         1 <0>         0.1238
     32 H5         -4.9241    3.9836    2.2016 H         1 <0>         0.1242
     33 H6         -6.8889    5.4675    2.2277 H         1 <0>         0.1289
     34 H7         -3.6359    2.3849   -0.8414 H         1 <0>         0.0774
     35 H8         -3.6196    2.3753    0.9385 H         1 <0>         0.0775
     36 H9         -2.1464    1.1970    0.0184 H         1 <0>         0.1435
     37 H10         0.0021   -0.0041    0.0020 H         1 <0>         0.1361
     38 H11         2.0897    3.7153    0.0025 H         1 <0>         0.1148
     39 H12        -0.0545    4.9237    0.0302 H         1 <0>         0.1414
     40 H13         5.4322    3.2422    1.0747 H         1 <0>         0.4710
     41 H14         0.9344   -0.8843    1.8653 H         1 <0>         0.1364
     42 H15         0.7221   -1.8535    4.1297 H         1 <0>         0.1399
     43 H16         2.2504   -1.2450    5.9198 H         1 <0>         0.1408
     44 H17         4.0856    0.3696    5.5550 H         1 <0>         0.1505
     45 H18         5.9908    3.5454   -1.2292 H         1 <0>         0.4415
     46 H19         4.9990    2.9187   -2.4318 H         1 <0>         0.4444
     47 N5          3.4016    1.7200   -1.0183 N.pl3     1 <0>        -0.6659
     48 H20         3.2334    1.6449   -2.0284 H         1 <0>         0.4813
@<TRIPOS>BOND
     1    1    6 ar
     2    1    2 ar
     3    1   29 1
     4    2    3 ar
     5    2   30 1
     6    3    4 ar
     7    3   31 1
     8    4    5 ar
     9    4    7 1
    10    5    6 ar
    11    5   32 1
    12    6   33 1
    13    7    8 1
    14    7   34 1
    15    7   35 1
    16    8    9 1
    17    9   14 ar
    18    9   10 ar
    19   10   11 ar
    20   10   36 1
    21   11   12 ar
    22   11   37 1
    23   12   13 ar
    24   12   15 1
    25   13   14 ar
    26   13   38 1
    27   14   39 1
    28   15   16 1
    29   15   20 1
    30   15   47 1
    31   17   18 1
    32   17   28 1
    33   17   47 2
    34   18   19 1
    35   18   40 1
    36   19   27 2
    37   19   20 1
    38   20   21 1
    39   21   26 ar
    40   21   22 ar
    41   22   23 ar
    42   22   41 1
    43   23   24 ar
    44   23   42 1
    45   24   25 ar
    46   24   43 1
    47   25   26 ar
    48   25   44 1
    49   26   27 1
    50   28   45 1
    51   28   46 1
    52   47   48 1
@<TRIPOS>MOLECULE
ZINC37769914
   36    37     0     0     0
SMALL
USER_CHARGES

@<TRIPOS>ATOM
      1 C1         -1.5369   -1.4334    4.6848 C.3       1 <0>         0.0338
      2 O1         -1.1204   -2.1144    3.4996 O.3       1 <0>        -0.3387
      3 C2         -2.0037   -2.1696    2.4834 C.2       1 <0>         0.5199
      4 O2         -3.0975   -1.6536    2.6004 O.2       1 <0>        -0.5067
      5 C3         -1.6429   -2.8559    1.2299 C.ar      1 <0>        -0.1158
      6 C4         -0.4388   -3.5590    1.1349 C.ar      1 <0>        -0.0058
      7 C5         -0.1072   -4.1993   -0.0400 C.ar      1 <0>        -0.0948
      8 C6         -0.9626   -4.1493   -1.1301 C.ar      1 <0>        -0.0128
      9 C7         -2.1554   -3.4582   -1.0511 C.ar      1 <0>        -0.0919
     10 C8         -2.5089   -2.8122    0.1271 C.ar      1 <0>         0.2256
     11 N1         -3.7145   -2.1191    0.2108 N.am      1 <0>        -0.6442
     12 C9         -4.8825   -2.7839    0.1092 C.2       1 <0>         0.5179
     13 O3         -4.8858   -3.9931    0.0155 O.2       1 <0>        -0.4964
     14 C10        -6.1843   -2.0249    0.1121 C.3       1 <0>         0.0175
     15 H1         -6.1517   -1.2186    0.8449 H         1 <0>         0.1755
     16 C11        -6.4828   -1.4625   -1.2943 C.3       1 <0>        -0.1359
     17 C12        -8.0097   -1.6002   -1.4653 C.3       1 <0>         0.0939
     18 H2         -8.2389   -2.2516   -2.3087 H         1 <0>         0.1038
     19 C13        -8.5053   -2.2342   -0.1479 C.3       1 <0>        -0.0386
     20 N2         -7.3177   -2.9411    0.4000 N.4       1 <0>        -0.5005
     21 O4         -8.6057   -0.3154   -1.6552 O.3       1 <0>        -0.5385
     22 Br1        -3.3126   -3.3975   -2.5454 Br        1 <0>        -0.0079
     23 Br2         1.5227   -5.1498   -0.1659 Br        1 <0>         0.0027
     24 H3         -0.7342   -1.4625    5.4217 H         1 <0>         0.1134
     25 H4         -1.7720   -0.3965    4.4445 H         1 <0>         0.0675
     26 H5         -2.4221   -1.9216    5.0924 H         1 <0>         0.0653
     27 H6          0.2313   -3.6003    1.9809 H         1 <0>         0.1676
     28 H7         -0.6942   -4.6537   -2.0465 H         1 <0>         0.1625
     29 H8         -3.7134   -1.1580    0.3422 H         1 <0>         0.4295
     30 H9         -6.1882   -0.4147   -1.3534 H         1 <0>         0.1390
     31 H10        -5.9626   -2.0462   -2.0537 H         1 <0>         0.1127
     32 H11        -8.8380   -1.4610    0.5445 H         1 <0>         0.1485
     33 H12        -9.3113   -2.9409   -0.3458 H         1 <0>         0.1492
     34 H13        -7.1858   -3.8241   -0.0701 H         1 <0>         0.4409
     35 H14        -9.5658   -0.3401   -1.7685 H         1 <0>         0.4011
     36 H15        -7.4153   -3.0801    1.3946 H         1 <0>         0.4407
@<TRIPOS>BOND
     1    1    2 1
     2    1   24 1
     3    1   25 1
     4    1   26 1
     5    2    3 1
     6    3    4 2
     7    3    5 1
     8    5   10 ar
     9    5    6 ar
    10    6    7 ar
    11    6   27 1
    12    7    8 ar
    13    7   23 1
    14    8    9 ar
    15    8   28 1
    16    9   10 ar
    17    9   22 1
    18   10   11 1
    19   11   12 am
    20   11   29 1
    21   12   13 2
    22   12   14 1
    23   14   15 1
    24   14   20 1
    25   14   16 1
    26   16   17 1
    27   16   30 1
    28   16   31 1
    29   17   18 1
    30   17   19 1
    31   17   21 1
    32   19   20 1
    33   19   32 1
    34   19   33 1
    35   20   34 1
    36   20   36 1
    37   21   35 1
@<TRIPOS>MOLECULE
ZINC40758582
   52    56     0     0     0
SMALL
USER_CHARGES

@<TRIPOS>ATOM
      1 C1         -4.5168   -3.9152    3.2575 C.3       1 <0>        -0.1149
      2 C2         -3.2948   -3.9572    2.3767 C.ar      1 <0>         0.1877
      3 C3         -3.3452   -4.6685    1.1798 C.ar      1 <0>        -0.1653
      4 C4         -2.2470   -4.7170    0.3694 C.ar      1 <0>        -0.0360
      5 C5         -1.0863   -4.0348    0.7816 C.ar      1 <0>        -0.1051
      6 C6          0.0799   -4.0406   -0.0010 C.ar      1 <0>        -0.0502
      7 C7          1.1867   -3.3709    0.4244 C.ar      1 <0>        -0.1217
      8 C8          1.1838   -2.6756    1.6302 C.ar      1 <0>        -0.0531
      9 C9          0.0593   -2.6467    2.4259 C.ar      1 <0>         0.0662
     10 C10        -1.1045   -3.3314    2.0103 C.ar      1 <0>         0.1261
     11 N1         -2.2136   -3.3190    2.7541 N.ar      1 <0>        -0.5016
     12 N2          0.0698   -1.9469    3.6325 N.pl3     1 <0>        -0.6183
     13 C11        -0.0336   -2.6350    4.8360 C.ar      1 <0>         0.4382
     14 C12        -0.1539   -1.9407    6.0417 C.ar      1 <0>         0.1246
     15 C13        -0.2549   -2.6808    7.2211 C.ar      1 <0>         0.4085
     16 N3         -0.2330   -4.0099    7.1521 N.ar      1 <0>        -0.4526
     17 C14        -0.1180   -4.6261    5.9932 C.ar      1 <0>         0.3300
     18 N4         -0.0252   -3.9657    4.8567 N.ar      1 <0>        -0.5023
     19 N5         -0.3761   -2.0395    8.4489 N.pl3     1 <0>        -0.5823
     20 C15        -1.6946   -1.6263    8.9486 C.3       1 <0>         0.1280
     21 C16        -1.5608   -0.2013    9.5014 C.3       1 <0>        -0.1338
     22 C17        -0.5951   -0.2199   10.6861 C.3       1 <0>        -0.0812
     23 C18         0.6897   -0.9085   10.3082 C.ar      1 <0>        -0.1224
     24 C19         0.7554   -1.7820    9.2320 C.ar      1 <0>         0.1912
     25 C20         1.9551   -2.4095    8.9153 C.ar      1 <0>        -0.1708
     26 C21         3.0831   -2.1663    9.6733 C.ar      1 <0>        -0.0822
     27 C22         3.0181   -1.2980   10.7474 C.ar      1 <0>        -0.1435
     28 C23         1.8267   -0.6646   11.0597 C.ar      1 <0>        -0.0785
     29 N6         -0.1721   -0.5374    6.0671 N.pl3     1 <0>        -0.8304
     30 H1         -5.1368   -3.0632    2.9784 H         1 <0>         0.0907
     31 H2         -5.0868   -4.8358    3.1323 H         1 <0>         0.0877
     32 H3         -4.2108   -3.8161    4.2990 H         1 <0>         0.0773
     33 H4         -4.2516   -5.1811    0.8934 H         1 <0>         0.1498
     34 H5         -2.2681   -5.2639   -0.5617 H         1 <0>         0.1533
     35 H6          0.0991   -4.5758   -0.9388 H         1 <0>         0.1470
     36 H7          2.0800   -3.3797   -0.1825 H         1 <0>         0.1480
     37 H8          2.0742   -2.1524    1.9462 H         1 <0>         0.1455
     38 H9          0.1493   -0.9802    3.6318 H         1 <0>         0.4363
     39 H10        -0.1036   -5.7058    5.9738 H         1 <0>         0.2426
     40 H11        -2.4189   -1.6398    8.1342 H         1 <0>         0.0825
     41 H12        -2.0169   -2.3011    9.7416 H         1 <0>         0.0811
     42 H13        -1.1727    0.4570    8.7242 H         1 <0>         0.0681
     43 H14        -2.5365    0.1556    9.8312 H         1 <0>         0.0933
     44 H15        -0.3789    0.8041   10.9908 H         1 <0>         0.0855
     45 H16        -1.0567   -0.7504   11.5189 H         1 <0>         0.0830
     46 H17         2.0045   -3.0876    8.0762 H         1 <0>         0.1100
     47 H18         4.0150   -2.6539    9.4278 H         1 <0>         0.1265
     48 H19         3.9007   -1.1068   11.3397 H         1 <0>         0.1279
     49 H20         1.7807    0.0129   11.8995 H         1 <0>         0.1309
     50 H21        -0.1765   -0.0373    5.2359 H         1 <0>         0.4085
     51 H22        -0.1804   -0.0678    6.9157 H         1 <0>         0.4257
     52 H23         0.0539   -4.4564    4.0236 H         1 <0>         0.4445
@<TRIPOS>BOND
     1    1    2 1
     2    1   30 1
     3    1   31 1
     4    1   32 1
     5    2   11 ar
     6    2    3 ar
     7    3    4 ar
     8    3   33 1
     9    4    5 ar
    10    4   34 1
    11    5   10 ar
    12    5    6 ar
    13    6    7 ar
    14    6   35 1
    15    7    8 ar
    16    7   36 1
    17    8    9 ar
    18    8   37 1
    19    9   10 ar
    20    9   12 1
    21   10   11 ar
    22   12   13 1
    23   12   38 1
    24   13   18 ar
    25   13   14 ar
    26   14   15 ar
    27   14   29 1
    28   15   16 ar
    29   15   19 1
    30   16   17 ar
    31   17   18 ar
    32   17   39 1
    33   18   52 1
    34   19   24 1
    35   19   20 1
    36   20   21 1
    37   20   40 1
    38   20   41 1
    39   21   22 1
    40   21   42 1
    41   21   43 1
    42   22   23 1
    43   22   44 1
    44   22   45 1
    45   23   28 ar
    46   23   24 ar
    47   24   25 ar
    48   25   26 ar
    49   25   46 1
    50   26   27 ar
    51   26   47 1
    52   27   28 ar
    53   27   48 1
    54   28   49 1
    55   29   50 1
    56   29   51 1
@<TRIPOS>MOLECULE
ZINC57838204
   43    45     0     0     0
SMALL
USER_CHARGES

@<TRIPOS>ATOM
      1 C1         -0.0187    1.5258    0.0104 C.3       1 <0>        -0.1563
      2 C2          0.0021   -0.0041    0.0020 C.3       1 <0>         0.0496
      3 O1          0.6709   -0.4649   -1.1737 O.3       1 <0>        -0.2937
      4 C3          0.7768   -1.8110   -1.3363 C.ar      1 <0>         0.1147
      5 C4          0.2442   -2.6654   -0.3891 C.ar      1 <0>        -0.1358
      6 C5          0.3541   -4.0480   -0.5591 C.ar      1 <0>        -0.0635
      7 C6          1.0022   -4.5606   -1.6861 C.ar      1 <0>        -0.0555
      8 C7          1.5313   -3.7018   -2.6271 C.ar      1 <0>        -0.1001
      9 C8          1.4170   -2.3284   -2.4600 C.ar      1 <0>         0.1537
     10 O2          1.9355   -1.4864   -3.3927 O.3       1 <0>        -0.4675
     11 Br1         2.4085   -4.3970   -4.1513 Br        1 <0>        -0.0009
     12 C9         -0.2116   -4.9635    0.4480 C.2       1 <0>         0.2200
     13 N1         -0.1086   -6.2475    0.2885 N.2       1 <0>        -0.2654
     14 N2         -0.6463   -7.1177    1.2458 N.pl3     1 <0>        -0.3182
     15 C10        -1.3112   -6.7562    2.3934 C.2       1 <0>        -0.0217
     16 C11        -1.6588   -7.9055    3.0259 C.2       1 <0>         0.1169
     17 N3         -1.2139   -8.9463    2.2772 N.pl3     1 <0>        -0.5267
     18 C12        -0.6125   -8.4817    1.2089 C.cat     1 <0>         0.6348
     19 N4         -0.0354   -9.2478    0.2105 N.pl3     1 <0>        -0.7878
     20 C13        -2.3945   -8.0064    4.3094 C.ar      1 <0>        -0.0569
     21 C14        -2.7997   -6.8512    4.9762 C.ar      1 <0>        -0.0852
     22 C15        -3.4845   -6.9511    6.1701 C.ar      1 <0>        -0.1075
     23 C16        -3.7689   -8.1946    6.7055 C.ar      1 <0>        -0.0885
     24 C17        -3.3689   -9.3444    6.0485 C.ar      1 <0>        -0.1072
     25 C18        -2.6885   -9.2568    4.8510 C.ar      1 <0>        -0.1018
     26 H1          1.0039    1.9031    0.0027 H         1 <0>         0.0706
     27 H2         -0.5459    1.8868   -0.8726 H         1 <0>         0.0715
     28 H3         -0.5289    1.8773    0.9072 H         1 <0>         0.0846
     29 H4          0.5293   -0.3651    0.8851 H         1 <0>         0.0668
     30 H5         -1.0205   -0.3814    0.0098 H         1 <0>         0.0671
     31 H6         -0.2556   -2.2652    0.4807 H         1 <0>         0.1518
     32 H7          1.0891   -5.6287   -1.8201 H         1 <0>         0.1505
     33 H8          2.8546   -1.2350   -3.2281 H         1 <0>         0.4039
     34 H9         -0.7119   -4.5660    1.3187 H         1 <0>         0.1510
     35 H10        -1.5174   -5.7502    2.7277 H         1 <0>         0.2199
     36 H11         0.3922   -8.8164   -0.5458 H         1 <0>         0.4457
     37 H12        -0.0587  -10.2158    0.2672 H         1 <0>         0.4396
     38 H13        -2.5779   -5.8798    4.5594 H         1 <0>         0.1314
     39 H14        -3.7986   -6.0568    6.6878 H         1 <0>         0.1394
     40 H15        -4.3051   -8.2680    7.6401 H         1 <0>         0.1371
     41 H16        -3.5930  -10.3125    6.4714 H         1 <0>         0.1374
     42 H17        -2.3806  -10.1551    4.3367 H         1 <0>         0.1215
     43 H18        -1.3260   -9.8846    2.4960 H         1 <0>         0.4607
@<TRIPOS>BOND
     1    1    2 1
     2    1   26 1
     3    1   27 1
     4    1   28 1
     5    2    3 1
     6    2   29 1
     7    2   30 1
     8    3    4 1
     9    4    9 ar
    10    4    5 ar
    11    5    6 ar
    12    5   31 1
    13    6    7 ar
    14    6   12 1
    15    7    8 ar
    16    7   32 1
    17    8    9 ar
    18    8   11 1
    19    9   10 1
    20   10   33 1
    21   12   13 2
    22   12   34 1
    23   13   14 1
    24   14   18 1
    25   14   15 1
    26   15   16 2
    27   15   35 1
    28   16   17 1
    29   16   20 1
    30   17   18 2
    31   17   43 1
    32   18   19 1
    33   19   36 1
    34   19   37 1
    35   20   25 ar
    36   20   21 ar
    37   21   22 ar
    38   21   38 1
    39   22   23 ar
    40   22   39 1
    41   23   24 ar
    42   23   40 1
    43   24   25 ar
    44   24   41 1
    45   25   42 1
@<TRIPOS>MOLECULE
ZINC63294895
   46    49     0     0     0
SMALL
USER_CHARGES

@<TRIPOS>ATOM
      1 C1         -0.0163    1.3482    0.0095 C.ar      1 <0>        -0.1464
      2 C2          1.1658    2.1014    0.0022 C.ar      1 <0>         0.0554
      3 C3          2.3912    1.5352   -0.0125 C.ar      1 <0>        -0.2089
      4 C4          2.5288    0.1198   -0.0218 C.ar      1 <0>         0.3296
      5 N1          3.5868   -0.6543   -0.0369 N.pl3     1 <0>        -0.5798
      6 C5          3.1432   -2.0528   -0.0408 C.3       1 <0>         0.0583
      7 C6          1.6315   -2.0084   -0.0255 C.2       1 <0>         0.0604
      8 C7          1.2951   -0.6984   -0.0144 C.ar      1 <0>        -0.1573
      9 C8          0.0021   -0.0041    0.0020 C.ar      1 <0>        -0.0163
     10 C9          0.6905   -3.1856   -0.0239 C.3       1 <0>        -0.1269
     11 C10         0.4565   -3.6534   -1.4617 C.3       1 <0>         0.2137
     12 H1          0.1150   -2.8208   -2.0768 H         1 <0>         0.1425
     13 N2         -0.5377   -4.7476   -1.4868 N.3       1 <0>        -0.6729
     14 C11         0.1567   -5.9253   -2.0549 C.3       1 <0>         0.1854
     15 H2          0.5487   -6.5562   -1.2571 H         1 <0>         0.0873
     16 O1          1.2392   -5.3722   -2.8373 O.3       1 <0>        -0.1532
     17 N3          1.7031   -4.2257   -2.0225 N.3       1 <0>        -0.4866
     18 C12        -0.7799   -6.7135   -2.9338 C.2       1 <0>         0.5342
     19 O2         -0.6169   -6.7266   -4.1355 O.2       1 <0>        -0.4998
     20 N4         -1.7987   -7.4039   -2.3843 N.am      1 <0>        -0.7148
     21 C13        -2.7092   -8.1702   -3.2388 C.3       1 <0>         0.1645
     22 C14        -3.7518   -8.8443   -2.3845 C.ar      1 <0>        -0.1285
     23 C15        -3.5192  -10.1110   -1.8818 C.ar      1 <0>        -0.0695
     24 C16        -4.4743  -10.7300   -1.0979 C.ar      1 <0>        -0.1551
     25 C17        -5.6645  -10.0810   -0.8161 C.ar      1 <0>         0.1131
     26 C18        -5.8963   -8.8124   -1.3201 C.ar      1 <0>        -0.1554
     27 C19        -4.9375   -8.1933   -2.0994 C.ar      1 <0>        -0.0683
     28 F1         -6.5991  -10.6854   -0.0503 F         1 <0>        -0.1340
     29 H3         -0.9665    1.8612    0.0259 H         1 <0>         0.1593
     30 H4          1.0933    3.1789    0.0083 H         1 <0>         0.1623
     31 H5          3.2717    2.1606   -0.0175 H         1 <0>         0.1619
     32 H6          3.4952   -2.5561   -0.9413 H         1 <0>         0.1764
     33 H7          3.5129   -2.5667    0.8465 H         1 <0>         0.1738
     34 H8         -0.9210   -0.5647    0.0081 H         1 <0>         0.1618
     35 H9          1.1268   -3.9987    0.5563 H         1 <0>         0.1153
     36 H10        -0.2596   -2.8905    0.4214 H         1 <0>         0.1345
     37 H11        -0.8828   -4.9440   -0.5592 H         1 <0>         0.3636
     38 H12         2.3230   -4.5320   -1.2876 H         1 <0>         0.3402
     39 H13        -1.9290   -7.3935   -1.4232 H         1 <0>         0.4010
     40 H14        -3.1971   -7.4980   -3.9446 H         1 <0>         0.0848
     41 H15        -2.1448   -8.9249   -3.7864 H         1 <0>         0.0843
     42 H16        -2.5909  -10.6171   -2.1021 H         1 <0>         0.1359
     43 H17        -4.2926  -11.7196   -0.7056 H         1 <0>         0.1404
     44 H18        -6.8244   -8.3055   -1.1012 H         1 <0>         0.1402
     45 H19        -5.1163   -7.2020   -2.4890 H         1 <0>         0.1361
     46 H20         4.5087   -0.3528   -0.0446 H         1 <0>         0.4573
@<TRIPOS>BOND
     1    1    9 ar
     2    1    2 ar
     3    1   29 1
     4    2    3 ar
     5    2   30 1
     6    3    4 ar
     7    3   31 1
     8    4    8 ar
     9    4    5 2
    10    5    6 1
    11    5   46 1
    12    6    7 1
    13    6   32 1
    14    6   33 1
    15    7    8 2
    16    7   10 1
    17    8    9 ar
    18    9   34 1
    19   10   11 1
    20   10   35 1
    21   10   36 1
    22   11   12 1
    23   11   17 1
    24   11   13 1
    25   13   14 1
    26   13   37 1
    27   14   15 1
    28   14   16 1
    29   14   18 1
    30   16   17 1
    31   17   38 1
    32   18   19 2
    33   18   20 am
    34   20   21 1
    35   20   39 1
    36   21   22 1
    37   21   40 1
    38   21   41 1
    39   22   27 ar
    40   22   23 ar
    41   23   24 ar
    42   23   42 1
    43   24   25 ar
    44   24   43 1
    45   25   26 ar
    46   25   28 1
    47   26   27 ar
    48   26   44 1
    49   27   45 1
@<TRIPOS>MOLECULE
ZINC04932835
   28    30     0     0     0
SMALL
USER_CHARGES
3-[(3-bromophenyl)methylene]indolin-2-one
@<TRIPOS>ATOM
      1 C1          2.0794    5.2729    0.1080 C.ar      1 <0>        -0.1414
      2 C2          1.5701    6.5545    0.2352 C.ar      1 <0>        -0.0777
      3 C3          0.2087    6.7649    0.3192 C.ar      1 <0>        -0.1382
      4 C4         -0.6683    5.6865    0.2758 C.ar      1 <0>         0.1477
      5 C5         -0.1490    4.3918    0.1466 C.ar      1 <0>        -0.1121
      6 C6          1.2244    4.1900    0.0631 C.ar      1 <0>        -0.0682
      7 C7         -1.3119    3.4749    0.1301 C.2       1 <0>        -0.1501
      8 C8         -1.2960    2.1165    0.0197 C.2       1 <0>         0.0218
      9 C9         -0.0498    1.4228   -0.3291 C.ar      1 <0>        -0.0774
     10 C10         0.7682    1.9169   -1.3527 C.ar      1 <0>        -0.0730
     11 C11         1.9333    1.2565   -1.6781 C.ar      1 <0>        -0.1192
     12 C12         2.2965    0.1077   -0.9962 C.ar      1 <0>        -0.0747
     13 C13         1.4938   -0.3880    0.0179 C.ar      1 <0>        -0.0952
     14 C14         0.3241    0.2606    0.3559 C.ar      1 <0>        -0.0637
     15 Br1         2.0022   -1.9581    0.9409 Br        1 <0>        -0.0414
     16 C15        -2.4908    4.3518    0.2525 C.2       1 <0>         0.5611
     17 O1         -3.6529    3.9904    0.2748 O.2       1 <0>        -0.4975
     18 N1         -2.0555    5.6203    0.3384 N.am      1 <0>        -0.6544
     19 H1          3.1466    5.1205    0.0435 H         1 <0>         0.1308
     20 H2          2.2447    7.3972    0.2693 H         1 <0>         0.1329
     21 H3         -0.1763    7.7691    0.4186 H         1 <0>         0.1293
     22 H4          1.6205    3.1903   -0.0368 H         1 <0>         0.1365
     23 H5         -2.2000    1.5503    0.1888 H         1 <0>         0.1506
     24 H6          0.4865    2.8127   -1.8861 H         1 <0>         0.1364
     25 H7          2.5649    1.6363   -2.4676 H         1 <0>         0.1397
     26 H8          3.2107   -0.4050   -1.2566 H         1 <0>         0.1375
     27 H9         -0.3013   -0.1272    1.1463 H         1 <0>         0.1400
     28 H10        -2.6359    6.3923    0.4282 H         1 <0>         0.4199
@<TRIPOS>BOND
     1    1    6 ar
     2    1    2 ar
     3    1   19 1
     4    2    3 ar
     5    2   20 1
     6    3    4 ar
     7    3   21 1
     8    4   18 1
     9    4    5 ar
    10    5    6 ar
    11    5    7 1
    12    6   22 1
    13    7    8 2
    14    7   16 1
    15    8    9 1
    16    8   23 1
    17    9   14 ar
    18    9   10 ar
    19   10   11 ar
    20   10   24 1
    21   11   12 ar
    22   11   25 1
    23   12   13 ar
    24   12   26 1
    25   13   14 ar
    26   13   15 1
    27   14   27 1
    28   16   17 2
    29   16   18 am
    30   18   28 1
@<TRIPOS>MOLECULE
ZINC34652200
   26    28     0     0     0
SMALL
USER_CHARGES

@<TRIPOS>ATOM
      1 C1         -0.0163    1.3513    0.0095 C.2       1 <0>        -0.1665
      2 C2          1.1833    2.0380    0.0017 C.2       1 <0>        -0.1215
      3 C3          2.3426    1.3358   -0.0131 C.2       1 <0>        -0.1868
      4 S1          1.7535   -0.3495   -0.0166 S.3       1 <0>         0.0588
      5 C4          0.0021   -0.0041    0.0020 C.2       1 <0>        -0.1567
      6 C5          3.7608    1.8454   -0.0244 C.3       1 <0>         0.2206
      7 N1          4.2338    2.0036    1.3531 N.pl3     1 <0>        -0.6670
      8 C6          5.5130    2.4611    1.5952 C.2       1 <0>         0.4233
      9 N2          6.4410    2.8081    0.7325 N.2       1 <0>        -0.5822
     10 C7          7.6616    3.2430    1.1158 C.ar      1 <0>         0.1449
     11 C8          8.7418    3.6438    0.2963 C.ar      1 <0>        -0.0802
     12 C9          9.9246    4.0616    0.8510 C.ar      1 <0>        -0.0121
     13 C10        10.1039    4.1062    2.2270 C.ar      1 <0>        -0.1120
     14 C11         9.0672    3.7214    3.0574 C.ar      1 <0>        -0.0375
     15 C12         7.8805    3.3021    2.5106 C.ar      1 <0>        -0.1656
     16 S2          6.3261    2.7398    3.1621 S.3       1 <0>        -0.0074
     17 Cl1        11.2266    4.5449   -0.1906 Cl        1 <0>        -0.0594
     18 H1         -0.9542    1.8866    0.0258 H         1 <0>         0.1383
     19 H2          1.1967    3.1179    0.0070 H         1 <0>         0.1372
     20 H3         -0.8275   -0.6955    0.0065 H         1 <0>         0.1895
     21 H4          4.3986    1.1333   -0.5480 H         1 <0>         0.0897
     22 H5          3.7967    2.8084   -0.5337 H         1 <0>         0.0972
     23 H6          3.6478    1.7867    2.0951 H         1 <0>         0.4245
     24 H7          8.6346    3.6204   -0.7781 H         1 <0>         0.1418
     25 H8         11.0432    4.4376    2.6444 H         1 <0>         0.1475
     26 H9          9.1908    3.7507    4.1300 H         1 <0>         0.1417
@<TRIPOS>BOND
     1    1    5 2
     2    1    2 1
     3    1   18 1
     4    2    3 2
     5    2   19 1
     6    3    4 1
     7    3    6 1
     8    4    5 1
     9    5   20 1
    10    6    7 1
    11    6   21 1
    12    6   22 1
    13    7    8 1
    14    7   23 1
    15    8   16 1
    16    8    9 2
    17    9   10 1
    18   10   15 ar
    19   10   11 ar
    20   11   12 ar
    21   11   24 1
    22   12   13 ar
    23   12   17 1
    24   13   14 ar
    25   13   25 1
    26   14   15 ar
    27   14   26 1
    28   15   16 1
@<TRIPOS>MOLECULE
ZINC37938254
   28    29     0     0     0
SMALL
USER_CHARGES

@<TRIPOS>ATOM
      1 C1         -0.0167    1.3780    0.0096 C.ar      1 <0>        -0.1064
      2 C2          1.1709    2.0861    0.0021 C.ar      1 <0>        -0.0929
      3 C3          2.3773    1.4123   -0.0135 C.ar      1 <0>        -0.1030
      4 C4          2.3967    0.0287   -0.0210 C.ar      1 <0>        -0.0184
      5 C5          1.2083   -0.6792   -0.0130 C.ar      1 <0>        -0.0957
      6 C6          0.0021   -0.0041    0.0020 C.ar      1 <0>        -0.0908
      7 C7          1.2286   -2.1860   -0.0218 C.3       1 <0>         0.2976
      8 H1          2.0692   -2.5346   -0.6217 H         1 <0>         0.1359
      9 C8          1.3701   -2.6828    1.3566 C.1       1 <0>         0.1832
     10 N1          1.4793   -3.0662    2.4204 N.1       1 <0>        -0.3920
     11 N2         -0.0224   -2.6879   -0.5957 N.pl3     1 <0>        -0.7310
     12 C9         -0.0608   -3.9522   -1.1900 C.ar      1 <0>         0.2181
     13 C10         1.0845   -4.7365   -1.2322 C.ar      1 <0>        -0.1837
     14 C11         1.0432   -5.9858   -1.8198 C.ar      1 <0>        -0.0638
     15 C12        -0.1368   -6.4562   -2.3664 C.ar      1 <0>        -0.1567
     16 C13        -1.2795   -5.6786   -2.3265 C.ar      1 <0>        -0.0624
     17 C14        -1.2468   -4.4299   -1.7350 C.ar      1 <0>        -0.1023
     18 Cl1        -2.6832   -3.4566   -1.6792 Cl        1 <0>        -0.0703
     19 Cl2         3.9119   -0.8184   -0.0411 Cl        1 <0>        -0.0556
     20 H2         -0.9592    1.9049    0.0259 H         1 <0>         0.1377
     21 H3          1.1556    3.1659    0.0080 H         1 <0>         0.1397
     22 H4          3.3048    1.9655   -0.0201 H         1 <0>         0.1423
     23 H5         -0.9258   -0.5566    0.0079 H         1 <0>         0.1322
     24 H6         -0.8240   -2.1427   -0.5633 H         1 <0>         0.4099
     25 H7          2.0067   -4.3698   -0.8063 H         1 <0>         0.1291
     26 H8          1.9337   -6.5959   -1.8528 H         1 <0>         0.1316
     27 H9         -0.1658   -7.4332   -2.8258 H         1 <0>         0.1319
     28 H10        -2.1993   -6.0489   -2.7546 H         1 <0>         0.1358
@<TRIPOS>BOND
     1    1    6 ar
     2    1    2 ar
     3    1   20 1
     4    2    3 ar
     5    2   21 1
     6    3    4 ar
     7    3   22 1
     8    4    5 ar
     9    4   19 1
    10    5    6 ar
    11    5    7 1
    12    6   23 1
    13    7    8 1
    14    7    9 1
    15    7   11 1
    16    9   10 3
    17   11   12 1
    18   11   24 1
    19   12   17 ar
    20   12   13 ar
    21   13   14 ar
    22   13   25 1
    23   14   15 ar
    24   14   26 1
    25   15   16 ar
    26   15   27 1
    27   16   17 ar
    28   16   28 1
    29   17   18 1
@<TRIPOS>MOLECULE
ZINC43464990
   30    31     0     0     0
SMALL
USER_CHARGES

@<TRIPOS>ATOM
      1 C1         -0.0184    1.5028    0.0103 C.3       1 <0>        -0.1179
      2 C2          0.0021   -0.0041    0.0020 C.ar      1 <0>        -0.0375
      3 C3          0.0057   -0.6893   -1.1991 C.ar      1 <0>        -0.1512
      4 C4          0.0225   -2.0703   -1.2058 C.ar      1 <0>        -0.0382
      5 C5          0.0365   -2.7750   -0.0135 C.ar      1 <0>        -0.2104
      6 C6          0.0363   -2.0921    1.1899 C.ar      1 <0>         0.1591
      7 C7          0.0228   -0.7007    1.1928 C.ar      1 <0>        -0.1519
      8 O1          0.0609   -2.7426    2.3822 O.3       1 <0>        -0.2956
      9 C8         -0.2881   -4.1275    2.3945 C.3       1 <0>         0.0997
     10 H1         -1.3563   -4.2385    2.2080 H         1 <0>         0.1194
     11 C9          0.5057   -4.8368    1.2900 C.3       1 <0>        -0.1541
     12 C10         0.0493   -4.2819   -0.0617 C.3       1 <0>         0.1567
     13 H2          0.7356   -4.6141   -0.8406 H         1 <0>         0.0824
     14 O2         -1.2658   -4.7595   -0.3523 O.3       1 <0>        -0.5566
     15 C11         0.0633   -4.7353    3.7540 C.3       1 <0>         0.1405
     16 Cl1        -0.8498   -3.8769    5.0502 Cl        1 <0>        -0.0721
     17 Cl2        -0.3795   -6.4830    3.7635 Cl        1 <0>        -0.0659
     18 Cl3         1.8334   -4.5621    4.0502 Cl        1 <0>        -0.0753
     19 C12         0.0250   -2.8139   -2.5166 C.3       1 <0>        -0.1235
     20 H3          1.0042    1.8801    0.0026 H         1 <0>         0.0763
     21 H4         -0.5455    1.8639   -0.8728 H         1 <0>         0.0711
     22 H5         -0.5286    1.8543    0.9071 H         1 <0>         0.0708
     23 H6         -0.0049   -0.1448   -2.1317 H         1 <0>         0.1275
     24 H7          0.0242   -0.1643    2.1302 H         1 <0>         0.1341
     25 H8          1.5708   -4.6480    1.4239 H         1 <0>         0.1046
     26 H9          0.3141   -5.9091    1.3306 H         1 <0>         0.1074
     27 H10        -1.6189   -4.4497   -1.1975 H         1 <0>         0.3819
     28 H11         1.0531   -2.9807   -2.8377 H         1 <0>         0.0787
     29 H12        -0.4766   -3.7734   -2.3909 H         1 <0>         0.0641
     30 H13        -0.4998   -2.2254   -3.2691 H         1 <0>         0.0760
@<TRIPOS>BOND
     1    1    2 1
     2    1   20 1
     3    1   21 1
     4    1   22 1
     5    2    7 ar
     6    2    3 ar
     7    3    4 ar
     8    3   23 1
     9    4    5 ar
    10    4   19 1
    11    5   12 1
    12    5    6 ar
    13    6    7 ar
    14    6    8 1
    15    7   24 1
    16    8    9 1
    17    9   10 1
    18    9   11 1
    19    9   15 1
    20   11   12 1
    21   11   25 1
    22   11   26 1
    23   12   13 1
    24   12   14 1
    25   14   27 1
    26   15   16 1
    27   15   17 1
    28   15   18 1
    29   19   28 1
    30   19   29 1
    31   19   30 1
@<TRIPOS>MOLECULE
ZINC54351749
   33    34     0     0     0
SMALL
USER_CHARGES

@<TRIPOS>ATOM
      1 C1         -0.0555    1.5021    0.0159 C.3       1 <0>        -0.1189
      2 C2         -0.0259   -0.0046    0.0056 C.ar      1 <0>        -0.0656
      3 C3          1.1840   -0.6714    0.0672 C.ar      1 <0>        -0.1032
      4 C4          1.2145   -2.0525    0.0580 C.ar      1 <0>        -0.1030
      5 C5          0.0300   -2.7712   -0.0132 C.ar      1 <0>         0.0802
      6 C6         -1.1837   -2.0997   -0.0750 C.ar      1 <0>        -0.0428
      7 C7         -1.2086   -0.7175   -0.0597 C.ar      1 <0>        -0.1020
      8 Cl1        -2.6684   -2.9947   -0.1648 Cl        1 <0>        -0.0470
      9 O1          0.0576   -4.1299   -0.0229 O.3       1 <0>        -0.2448
     10 C8         -0.0445   -4.7615   -1.2217 C.ar      1 <0>         0.1626
     11 C9         -0.0525   -4.0238   -2.3974 C.ar      1 <0>        -0.2049
     12 C10        -0.1564   -4.6670   -3.6153 C.ar      1 <0>        -0.0471
     13 C11        -0.2525   -6.0453   -3.6653 C.ar      1 <0>        -0.1896
     14 C12        -0.2449   -6.7846   -2.4944 C.ar      1 <0>         0.1627
     15 C13        -0.1352   -6.1446   -1.2724 C.ar      1 <0>        -0.1466
     16 C14        -0.1206   -6.9488    0.0019 C.3       1 <0>         0.1514
     17 H1          0.2285   -6.3225    0.8229 H         1 <0>         0.0744
     18 C15        -1.5347   -7.4474    0.3065 C.3       1 <0>        -0.1814
     19 O2          0.7562   -8.0669   -0.1504 O.3       1 <0>        -0.5597
     20 F1         -0.3393   -8.1314   -2.5454 F         1 <0>        -0.1193
     21 H2         -0.1145    1.8573    1.0447 H         1 <0>         0.0789
     22 H3          0.8519    1.8866   -0.4497 H         1 <0>         0.0741
     23 H4         -0.9254    1.8522   -0.5398 H         1 <0>         0.0726
     24 H5          2.1061   -0.1119    0.1223 H         1 <0>         0.1399
     25 H6          2.1600   -2.5724    0.1058 H         1 <0>         0.1435
     26 H7         -2.1524   -0.1942   -0.1030 H         1 <0>         0.1423
     27 H8          0.0222   -2.9471   -2.3598 H         1 <0>         0.1337
     28 H9         -0.1629   -4.0924   -4.5298 H         1 <0>         0.1390
     29 H10        -0.3340   -6.5460   -4.6187 H         1 <0>         0.1406
     30 H11        -1.8838   -8.0737   -0.5144 H         1 <0>         0.0656
     31 H12        -1.5241   -8.0292    1.2283 H         1 <0>         0.0652
     32 H13        -2.2035   -6.5946    0.4228 H         1 <0>         0.0675
     33 H14         0.8149   -8.6303    0.6333 H         1 <0>         0.3819
@<TRIPOS>BOND
     1    1    2 1
     2    1   21 1
     3    1   22 1
     4    1   23 1
     5    2    7 ar
     6    2    3 ar
     7    3    4 ar
     8    3   24 1
     9    4    5 ar
    10    4   25 1
    11    5    6 ar
    12    5    9 1
    13    6    7 ar
    14    6    8 1
    15    7   26 1
    16    9   10 1
    17   10   15 ar
    18   10   11 ar
    19   11   12 ar
    20   11   27 1
    21   12   13 ar
    22   12   28 1
    23   13   14 ar
    24   13   29 1
    25   14   15 ar
    26   14   20 1
    27   15   16 1
    28   16   17 1
    29   16   18 1
    30   16   19 1
    31   18   30 1
    32   18   31 1
    33   18   32 1
    34   19   33 1
@<TRIPOS>MOLECULE
ZINC00917610
   39    42     0     0     0
SMALL
USER_CHARGES
amino-methoxy-N-(5-methylthiazol-2-yl)-BLAHcarboxamide
@<TRIPOS>ATOM
      1 C1          5.1179    2.9651   -0.0314 C.3       1 <0>        -0.0597
      2 C2          3.6432    2.6551   -0.0191 C.2       1 <0>        -0.1985
      3 C3          2.5824    3.4985   -0.0046 C.2       1 <0>         0.0510
      4 N1          1.3688    2.9822   -0.0009 N.2       1 <0>        -0.5090
      5 C4          1.1819    1.6764   -0.0002 C.2       1 <0>         0.3046
      6 S1          2.8105    1.0741   -0.0190 S.3       1 <0>         0.0537
      7 N2         -0.0111    0.9658    0.0074 N.am      1 <0>        -0.6157
      8 C5         -1.1873    1.6238    0.0165 C.2       1 <0>         0.6208
      9 O1         -1.2038    2.8416    0.0232 O.2       1 <0>        -0.4899
     10 C6         -2.4041    0.8990    0.0183 C.2       1 <0>        -0.3520
     11 C7         -3.6883    1.3922    0.0271 C.2       1 <0>         0.3188
     12 C8         -4.7951    0.4436    0.0272 C.ar      1 <0>        -0.1760
     13 C9         -6.1748    0.7165    0.0357 C.ar      1 <0>         0.0127
     14 C10        -7.0763   -0.3530    0.0337 C.ar      1 <0>        -0.0781
     15 C11        -8.4662   -0.1266    0.0420 C.ar      1 <0>        -0.1355
     16 C12        -9.3233   -1.1879    0.0408 C.ar      1 <0>         0.1292
     17 C13        -8.8397   -2.5008    0.0309 C.ar      1 <0>        -0.1496
     18 C14        -7.5040   -2.7543    0.0232 C.ar      1 <0>        -0.0583
     19 C15        -6.5887   -1.6862    0.0242 C.ar      1 <0>         0.1501
     20 N3         -5.2718   -1.9112    0.0167 N.ar      1 <0>        -0.4332
     21 C16        -4.4106   -0.9252    0.0180 C.ar      1 <0>         0.1534
     22 S2         -2.6347   -0.8674    0.0020 S.3       1 <0>         0.0956
     23 O2        -10.6645   -0.9670    0.0488 O.3       1 <0>        -0.3126
     24 C17       -11.5116   -2.1179    0.0470 C.3       1 <0>         0.0225
     25 N4         -3.9243    2.7589    0.0361 N.pl3     1 <0>        -0.8163
     26 H1          5.6848    2.0342   -0.0417 H         1 <0>         0.0732
     27 H2          5.3594    3.5474   -0.9207 H         1 <0>         0.0823
     28 H3          5.3762    3.5380    0.8592 H         1 <0>         0.0823
     29 H4          2.7275    4.5687   -0.0007 H         1 <0>         0.1719
     30 H5          0.0021   -0.0041    0.0020 H         1 <0>         0.4255
     31 H6         -6.5324    1.7356    0.0428 H         1 <0>         0.1471
     32 H7         -8.8516    0.8822    0.0490 H         1 <0>         0.1434
     33 H8         -9.5378   -3.3249    0.0297 H         1 <0>         0.1446
     34 H9         -7.1465   -3.7734    0.0156 H         1 <0>         0.1494
     35 H10       -11.3177   -2.7103   -0.8471 H         1 <0>         0.0594
     36 H11       -11.3086   -2.7198    0.9328 H         1 <0>         0.0594
     37 H12       -12.5546   -1.8013    0.0540 H         1 <0>         0.1051
     38 H13        -3.1790    3.3797    0.0359 H         1 <0>         0.4266
     39 H14        -4.8346    3.0939    0.0426 H         1 <0>         0.4016
@<TRIPOS>BOND
     1    1    2 1
     2    1   26 1
     3    1   27 1
     4    1   28 1
     5    2    6 1
     6    2    3 2
     7    3    4 1
     8    3   29 1
     9    4    5 2
    10    5    6 1
    11    5    7 1
    12    7    8 am
    13    7   30 1
    14    8    9 2
    15    8   10 1
    16   10   22 1
    17   10   11 2
    18   11   12 1
    19   11   25 1
    20   12   21 ar
    21   12   13 ar
    22   13   14 ar
    23   13   31 1
    24   14   19 ar
    25   14   15 ar
    26   15   16 ar
    27   15   32 1
    28   16   17 ar
    29   16   23 1
    30   17   18 ar
    31   17   33 1
    32   18   19 ar
    33   18   34 1
    34   19   20 ar
    35   20   21 ar
    36   21   22 1
    37   23   24 1
    38   24   35 1
    39   24   36 1
    40   24   37 1
    41   25   38 1
    42   25   39 1
@<TRIPOS>MOLECULE
ZINC18198346
   46    50     0     0     0
SMALL
USER_CHARGES
3-amino-N-(1,3-benzodioxol-5-ylmethyl)-5,6,7,8-tetrahydrothieno[5,4-b]quinoline-2-carboxamide
@<TRIPOS>ATOM
      1 C1          2.8857   -1.6459    1.6772 C.ar      1 <0>        -0.0866
      2 C2          1.6169   -1.5522    1.1354 C.ar      1 <0>        -0.1015
      3 C3          1.1833   -0.3558    0.5887 C.ar      1 <0>         0.0418
      4 C4          2.0285    0.7517    0.5865 C.ar      1 <0>         0.0305
      5 C5          3.2980    0.6505    1.1310 C.ar      1 <0>        -0.0805
      6 C6          3.7242   -0.5473    1.6749 C.ar      1 <0>        -0.1033
      7 C7          5.1058   -0.6547    2.2671 C.3       1 <0>         0.1694
      8 N1          6.0512   -1.0718    1.2286 N.am      1 <0>        -0.7245
      9 C8          7.3547   -1.2344    1.5299 C.2       1 <0>         0.6231
     10 O1          7.7467   -1.0346    2.6654 O.2       1 <0>        -0.5548
     11 C9          8.2694   -1.6380    0.5251 C.2       1 <0>        -0.3480
     12 C10         9.6257   -1.8485    0.6400 C.2       1 <0>         0.3059
     13 C11        10.3620   -2.2673   -0.5429 C.ar      1 <0>        -0.1899
     14 C12        11.7421   -2.5450   -0.6774 C.ar      1 <0>        -0.0127
     15 C13        12.2458   -2.9257   -1.9067 C.ar      1 <0>        -0.1389
     16 C14        11.4009   -3.0380   -2.9951 C.ar      1 <0>         0.1936
     17 N2         10.1084   -2.7742   -2.8615 N.ar      1 <0>        -0.4579
     18 C15         9.5852   -2.4071   -1.7153 C.ar      1 <0>         0.1374
     19 S1          7.9414   -1.9869   -1.1913 S.3       1 <0>         0.1052
     20 C16        11.8863   -3.4629   -4.3569 C.3       1 <0>        -0.0735
     21 C17        13.4021   -3.3068   -4.4590 C.3       1 <0>        -0.1208
     22 C18        14.0425   -4.0093   -3.2561 C.3       1 <0>        -0.1235
     23 C19        13.7245   -3.2014   -1.9998 C.3       1 <0>        -0.0753
     24 N3         10.2729   -1.6697    1.8546 N.pl3     1 <0>        -0.8240
     25 O2          1.3764    1.7968   -0.0014 O.3       1 <0>        -0.3071
     26 C20        -0.0175    1.4356    0.0099 C.3       1 <0>         0.2127
     27 O3          0.0021   -0.0041    0.0020 O.3       1 <0>        -0.3074
     28 H1          3.2223   -2.5798    2.1027 H         1 <0>         0.1421
     29 H2          0.9636   -2.4122    1.1388 H         1 <0>         0.1396
     30 H3          3.9554    1.5073    1.1303 H         1 <0>         0.1384
     31 H4          5.4071    0.3145    2.6647 H         1 <0>         0.0817
     32 H5          5.1005   -1.3912    3.0706 H         1 <0>         0.0843
     33 H6          5.7389   -1.2309    0.3241 H         1 <0>         0.4021
     34 H7         12.3988   -2.4603    0.1759 H         1 <0>         0.1375
     35 H8         11.6204   -4.5068   -4.5238 H         1 <0>         0.0932
     36 H9         11.4092   -2.8450   -5.1176 H         1 <0>         0.0930
     37 H10        13.6637   -2.2487   -4.4482 H         1 <0>         0.0699
     38 H11        13.7574   -3.7634   -5.3827 H         1 <0>         0.0793
     39 H12        15.1224   -4.0627   -3.3945 H         1 <0>         0.0754
     40 H13        13.6349   -5.0155   -3.1584 H         1 <0>         0.0694
     41 H14        14.2650   -2.2555   -2.0345 H         1 <0>         0.0819
     42 H15        14.0413   -3.7636   -1.1213 H         1 <0>         0.0792
     43 H16         9.7695   -1.3933    2.6363 H         1 <0>         0.4242
     44 H17        11.2287   -1.8210    1.9217 H         1 <0>         0.3984
     45 H18        -0.5191    1.8168   -0.8796 H         1 <0>         0.1342
     46 H19        -0.5020    1.8071    0.9129 H         1 <0>         0.0868
@<TRIPOS>BOND
     1    1    6 ar
     2    1    2 ar
     3    1   28 1
     4    2    3 ar
     5    2   29 1
     6    3   27 1
     7    3    4 ar
     8    4    5 ar
     9    4   25 1
    10    5    6 ar
    11    5   30 1
    12    6    7 1
    13    7    8 1
    14    7   31 1
    15    7   32 1
    16    8    9 am
    17    8   33 1
    18    9   10 2
    19    9   11 1
    20   11   19 1
    21   11   12 2
    22   12   13 1
    23   12   24 1
    24   13   18 ar
    25   13   14 ar
    26   14   15 ar
    27   14   34 1
    28   15   23 1
    29   15   16 ar
    30   16   17 ar
    31   16   20 1
    32   17   18 ar
    33   18   19 1
    34   20   21 1
    35   20   35 1
    36   20   36 1
    37   21   22 1
    38   21   37 1
    39   21   38 1
    40   22   23 1
    41   22   39 1
    42   22   40 1
    43   23   41 1
    44   23   42 1
    45   24   43 1
    46   24   44 1
    47   25   26 1
    48   26   27 1
    49   26   45 1
    50   26   46 1
@<TRIPOS>MOLECULE
ZINC39549087
   48    51     0     0     0
SMALL
USER_CHARGES

@<TRIPOS>ATOM
      1 C1          0.1442    1.4814   -0.7917 C.ar      1 <0>        -0.1373
      2 C2          1.1814    2.0899   -0.0977 C.ar      1 <0>        -0.0774
      3 C3          2.3320    1.3936    0.2025 C.ar      1 <0>        -0.1127
      4 C4          2.4607    0.0667   -0.1917 C.ar      1 <0>         0.0743
      5 C5          1.4064   -0.5451   -0.8949 C.ar      1 <0>        -0.1480
      6 C6          0.2481    0.1784   -1.1894 C.ar      1 <0>        -0.0559
      7 C7          1.8473   -1.9144   -1.1579 C.2       1 <0>        -0.0958
      8 C8          3.0874   -2.0213   -0.6142 C.2       1 <0>        -0.0363
      9 O1          3.4391   -0.8482   -0.0474 O.3       1 <0>        -0.1863
     10 C9          3.9202   -3.2317   -0.6389 C.2       1 <0>         0.5996
     11 O2          3.5088   -4.2423   -1.1774 O.2       1 <0>        -0.4859
     12 N1          5.1397   -3.2225   -0.0651 N.am      1 <0>        -0.6496
     13 C10         5.8855   -4.4057    0.0140 C.ar      1 <0>         0.1310
     14 C11         5.2440   -5.6299    0.0002 C.ar      1 <0>        -0.0660
     15 C12         5.9918   -6.8081    0.0793 C.ar      1 <0>        -0.1232
     16 C13         7.3850   -6.7444    0.1720 C.ar      1 <0>        -0.0945
     17 C14         8.0203   -5.5226    0.1858 C.ar      1 <0>        -0.1115
     18 C15         7.2793   -4.3493    0.1010 C.ar      1 <0>         0.1755
     19 N2          7.9262   -3.1163    0.1091 N.pl3     1 <0>        -0.6785
     20 C16         8.1992   -2.4225    1.3751 C.3       1 <0>         0.1395
     21 C17         9.6924   -2.0863    1.4411 C.3       1 <0>        -0.1353
     22 C18        10.0887   -1.2951    0.1925 C.3       1 <0>        -0.1169
     23 C19         9.8402   -2.1475   -1.0539 C.3       1 <0>        -0.1361
     24 C20         8.3541   -2.4872   -1.1478 C.3       1 <0>         0.1441
     25 C21         5.3115   -8.1171    0.0655 C.2       1 <0>         0.5632
     26 O3          4.0994   -8.1715   -0.0148 O.2       1 <0>        -0.5323
     27 N3          6.0334   -9.2526    0.1418 N.am      1 <0>        -0.8510
     28 H1         -0.7525    2.0404   -1.0149 H         1 <0>         0.1346
     29 H2          1.0854    3.1207    0.2099 H         1 <0>         0.1398
     30 H3          3.1322    1.8778    0.7426 H         1 <0>         0.1364
     31 H4         -0.5614   -0.2900   -1.7293 H         1 <0>         0.1335
     32 H5          1.2980   -2.6848   -1.6787 H         1 <0>         0.1736
     33 H6          5.5009   -2.3967    0.2932 H         1 <0>         0.4196
     34 H7          4.1673   -5.6760   -0.0711 H         1 <0>         0.1613
     35 H8          7.9638   -7.6542    0.2331 H         1 <0>         0.1294
     36 H9          9.0968   -5.4759    0.2582 H         1 <0>         0.1346
     37 H10         7.6154   -1.5032    1.4213 H         1 <0>         0.0521
     38 H11         7.9330   -3.0693    2.2111 H         1 <0>         0.0709
     39 H12         9.8915   -1.4875    2.3298 H         1 <0>         0.0689
     40 H13        10.2713   -3.0088    1.4862 H         1 <0>         0.0650
     41 H14         9.4919   -0.3848    0.1349 H         1 <0>         0.0614
     42 H15        11.1453   -1.0334    0.2487 H         1 <0>         0.0615
     43 H16        10.1445   -1.5921   -1.9411 H         1 <0>         0.0690
     44 H17        10.4177   -3.0694   -0.9853 H         1 <0>         0.0646
     45 H18         8.1901   -3.1767   -1.9759 H         1 <0>         0.0695
     46 H19         7.7832   -1.5733   -1.3119 H         1 <0>         0.0509
     47 H20         7.0004   -9.2092    0.2058 H         1 <0>         0.4006
     48 H21         5.5861  -10.1132    0.1327 H         1 <0>         0.4064
@<TRIPOS>BOND
     1    1    6 ar
     2    1    2 ar
     3    1   28 1
     4    2    3 ar
     5    2   29 1
     6    3    4 ar
     7    3   30 1
     8    4    9 1
     9    4    5 ar
    10    5    6 ar
    11    5    7 1
    12    6   31 1
    13    7    8 2
    14    7   32 1
    15    8    9 1
    16    8   10 1
    17   10   11 2
    18   10   12 am
    19   12   13 1
    20   12   33 1
    21   13   18 ar
    22   13   14 ar
    23   14   15 ar
    24   14   34 1
    25   15   16 ar
    26   15   25 1
    27   16   17 ar
    28   16   35 1
    29   17   18 ar
    30   17   36 1
    31   18   19 1
    32   19   24 1
    33   19   20 1
    34   20   21 1
    35   20   37 1
    36   20   38 1
    37   21   22 1
    38   21   39 1
    39   21   40 1
    40   22   23 1
    41   22   41 1
    42   22   42 1
    43   23   24 1
    44   23   43 1
    45   23   44 1
    46   24   45 1
    47   24   46 1
    48   25   26 2
    49   25   27 am
    50   27   47 1
    51   27   48 1
@<TRIPOS>MOLECULE
ZINC47167241
   41    43     0     0     0
SMALL
USER_CHARGES

@<TRIPOS>ATOM
      1 C1         -0.3244    1.7676    0.3422 C.3       1 <0>        -0.1453
      2 C2         -0.1342    0.2565    0.1966 C.3       1 <0>         0.1677
      3 C3          0.7632   -0.0568   -0.9842 C.2       1 <0>         0.5383
      4 O1          0.5585    0.2067   -2.1497 O.2       1 <0>        -0.4558
      5 N1          1.8363   -0.6884   -0.4688 N.am      1 <0>        -0.6784
      6 C4          1.7426   -0.8165    0.8597 C.2       1 <0>         0.7068
      7 O2          2.5888   -1.3526    1.5481 O.2       1 <0>        -0.5360
      8 N2          0.6071   -0.2860    1.3483 N.am      1 <0>        -0.7161
      9 C5         -1.4666   -0.4325    0.0515 C.ar      1 <0>        -0.0825
     10 C6         -1.8528   -1.3903    0.9714 C.ar      1 <0>        -0.1139
     11 C7         -3.0746   -2.0244    0.8420 C.ar      1 <0>        -0.0961
     12 C8         -3.9137   -1.7027   -0.2070 C.ar      1 <0>        -0.1084
     13 C9         -3.5289   -0.7415   -1.1322 C.ar      1 <0>         0.1509
     14 C10        -2.3031   -0.1026   -0.9965 C.ar      1 <0>        -0.1198
     15 N3         -4.3764   -0.4137   -2.1963 N.am      1 <0>        -0.6745
     16 C11        -5.7132   -0.4491   -2.0287 C.2       1 <0>         0.5145
     17 O3         -6.1812   -0.6714   -0.9320 O.2       1 <0>        -0.5046
     18 C12        -6.6265   -0.2126   -3.2038 C.3       1 <0>        -0.1014
     19 C13        -8.0611   -0.3057   -2.7518 C.ar      1 <0>        -0.0562
     20 C14        -8.7157   -1.5233   -2.7767 C.ar      1 <0>        -0.0870
     21 C15       -10.0315   -1.6100   -2.3628 C.ar      1 <0>        -0.0960
     22 C16       -10.6943   -0.4781   -1.9230 C.ar      1 <0>        -0.0287
     23 C17       -10.0387    0.7411   -1.8977 C.ar      1 <0>        -0.0292
     24 C18        -8.7200    0.8250   -2.3074 C.ar      1 <0>        -0.0832
     25 Cl1       -10.8691    2.1625   -1.3466 Cl        1 <0>        -0.0453
     26 Cl2       -12.3472   -0.5862   -1.4036 Cl        1 <0>        -0.0459
     27 H1          0.6500    2.2518    0.4079 H         1 <0>         0.0738
     28 H2         -0.8631    2.1512   -0.5243 H         1 <0>         0.0867
     29 H3         -0.8955    1.9764    1.2468 H         1 <0>         0.0849
     30 H4          2.5840   -1.0109   -0.9959 H         1 <0>         0.4354
     31 H5          0.3304   -0.2645    2.2778 H         1 <0>         0.4432
     32 H6         -1.1984   -1.6439    1.7923 H         1 <0>         0.1276
     33 H7         -3.3731   -2.7722    1.5618 H         1 <0>         0.1323
     34 H8         -4.8678   -2.1986   -0.3077 H         1 <0>         0.1380
     35 H9         -2.0028    0.6484   -1.7121 H         1 <0>         0.1360
     36 H10        -4.0018   -0.1609   -3.0546 H         1 <0>         0.4146
     37 H11        -6.4390    0.7790   -3.6159 H         1 <0>         0.1137
     38 H12        -6.4370   -0.9657   -3.9687 H         1 <0>         0.1159
     39 H13        -8.1986   -2.4071   -3.1200 H         1 <0>         0.1381
     40 H14       -10.5424   -2.5612   -2.3831 H         1 <0>         0.1449
     41 H15        -8.2067    1.7750   -2.2842 H         1 <0>         0.1413
@<TRIPOS>BOND
     1    1    2 1
     2    1   27 1
     3    1   28 1
     4    1   29 1
     5    2    8 1
     6    2    3 1
     7    2    9 1
     8    3    4 2
     9    3    5 am
    10    5    6 am
    11    5   30 1
    12    6    7 2
    13    6    8 am
    14    8   31 1
    15    9   14 ar
    16    9   10 ar
    17   10   11 ar
    18   10   32 1
    19   11   12 ar
    20   11   33 1
    21   12   13 ar
    22   12   34 1
    23   13   14 ar
    24   13   15 1
    25   14   35 1
    26   15   16 am
    27   15   36 1
    28   16   17 2
    29   16   18 1
    30   18   19 1
    31   18   37 1
    32   18   38 1
    33   19   24 ar
    34   19   20 ar
    35   20   21 ar
    36   20   39 1
    37   21   22 ar
    38   21   40 1
    39   22   23 ar
    40   22   26 1
    41   23   24 ar
    42   23   25 1
    43   24   41 1
@<TRIPOS>MOLECULE
ZINC63753158
   41    44     0     0     0
SMALL
USER_CHARGES

@<TRIPOS>ATOM
      1 C1         -0.0184    1.5028    0.0103 C.3       1 <0>        -0.0808
      2 C2          0.0021   -0.0041    0.0020 C.ar      1 <0>        -0.1399
      3 C3          0.0057   -0.6889   -1.1975 C.ar      1 <0>        -0.0532
      4 C4          0.0240   -2.0714   -1.2060 C.ar      1 <0>        -0.1920
      5 C5          0.0391   -2.7733   -0.0143 C.ar      1 <0>        -0.0327
      6 C6          0.0360   -2.0949    1.1884 C.ar      1 <0>        -0.2550
      7 C7          0.0230   -0.7057    1.2005 C.ar      1 <0>         0.2813
      8 N1          0.0251   -0.0163    2.4152 N.2       1 <0>        -1.0665
      9 S1          0.0500   -0.8547    3.8431 S.o2      1 <0>         2.5825
     10 O1         -1.1852   -1.5522    3.9261 O.2       1 <0>        -0.9977
     11 O2          1.3052   -1.5183    3.9025 O.2       1 <0>        -0.9872
     12 C8          0.0462    0.3329    5.1447 C.2       1 <0>        -0.4461
     13 H1         -1.9814    0.6715    5.5502 H         1 <0>         0.4719
     14 C9          1.1256    0.8887    5.7275 C.2       1 <0>         0.1042
     15 N2          0.6957    1.7405    6.6702 N.pl3     1 <0>        -0.4836
     16 C10        -0.6091    1.7336    6.6938 C.cat     1 <0>         0.3085
     17 N3         -1.0545    0.8724    5.7538 N.pl3     1 <0>        -0.4548
     18 C11         0.0269   -2.8152   -2.5167 C.3       1 <0>         0.2584
     19 H2          0.5132   -2.2290   -3.2964 H         1 <0>         0.1087
     20 N4          0.6591   -4.1338   -2.3747 N.pl3     1 <0>        -0.7341
     21 C12        -0.1278   -5.2563   -2.6280 C.ar      1 <0>         0.1856
     22 C13         0.3019   -6.5928   -2.5442 C.ar      1 <0>        -0.1690
     23 C14        -0.5543   -7.6345   -2.8153 C.ar      1 <0>        -0.0778
     24 C15        -1.8677   -7.4031   -3.1802 C.ar      1 <0>        -0.1570
     25 C16        -2.3186   -6.0968   -3.2709 C.ar      1 <0>        -0.0448
     26 C17        -1.4609   -5.0550   -2.9989 C.ar      1 <0>        -0.1371
     27 S2         -1.6782   -3.2887   -3.0119 S.3       1 <0>        -0.1603
     28 H3          1.0042    1.8801    0.0026 H         1 <0>         0.0511
     29 H4         -0.5455    1.8639   -0.8728 H         1 <0>         0.0447
     30 H5         -0.5286    1.8543    0.9071 H         1 <0>         0.0691
     31 H6         -0.0060   -0.1439   -2.1298 H         1 <0>         0.1145
     32 H7          0.0529   -3.8531   -0.0245 H         1 <0>         0.1071
     33 H8          0.0474   -2.6436    2.1185 H         1 <0>         0.0989
     34 H9          2.1566    0.6844    5.4792 H         1 <0>         0.2366
     35 H10        -1.2298    2.3218    7.3534 H         1 <0>         0.2711
     36 H11         1.5896   -4.2201   -2.1147 H         1 <0>         0.4113
     37 H12         1.3226   -6.8050   -2.2623 H         1 <0>         0.1191
     38 H13        -0.1946   -8.6502   -2.7422 H         1 <0>         0.1238
     39 H14        -2.5316   -8.2283   -3.3917 H         1 <0>         0.1285
     40 H15        -3.3412   -5.8958   -3.5540 H         1 <0>         0.1261
     41 H16         1.2649    2.2769    7.2439 H         1 <0>         0.4662
@<TRIPOS>BOND
     1    1    2 1
     2    1   28 1
     3    1   29 1
     4    1   30 1
     5    2    7 ar
     6    2    3 ar
     7    3    4 ar
     8    3   31 1
     9    4    5 ar
    10    4   18 1
    11    5    6 ar
    12    5   32 1
    13    6    7 ar
    14    6   33 1
    15    7    8 1
    16    8    9 1
    17    9   10 2
    18    9   11 2
    19    9   12 1
    20   12   14 2
    21   12   17 1
    22   13   17 1
    23   14   15 1
    24   14   34 1
    25   15   16 2
    26   15   41 1
    27   16   35 1
    28   16   17 1
    29   18   19 1
    30   18   27 1
    31   18   20 1
    32   20   21 1
    33   20   36 1
    34   21   26 ar
    35   21   22 ar
    36   22   23 ar
    37   22   37 1
    38   23   24 ar
    39   23   38 1
    40   24   25 ar
    41   24   39 1
    42   25   26 ar
    43   25   40 1
    44   26   27 1
@<TRIPOS>MOLECULE
ZINC04848837
   45    49     0     0     0
SMALL
USER_CHARGES
amino-N-cyclopentyl-BLAHcarboxamide
@<TRIPOS>ATOM
      1 C1          1.6149    2.8726    8.2397 C.ar      1 <0>         0.0217
      2 C2          2.7853    3.2795    8.8828 C.ar      1 <0>        -0.1126
      3 C3          2.8553    3.4132   10.2818 C.ar      1 <0>        -0.0859
      4 C4          4.0196    3.8174   10.8692 C.ar      1 <0>         0.0623
      5 C5          5.1606    4.1012   10.1027 C.ar      1 <0>         0.1104
      6 C6          5.1460    3.9864    8.7398 C.ar      1 <0>        -0.1129
      7 C7          3.9758    3.5777    8.0837 C.ar      1 <0>         0.1910
      8 N1          3.9190    3.4544    6.7556 N.ar      1 <0>        -0.4400
      9 C8          2.8191    3.0727    6.1534 C.ar      1 <0>         0.1590
     10 C9          1.6129    2.7612    6.8359 C.ar      1 <0>        -0.1858
     11 C10         0.5070    2.3579    5.9748 C.2       1 <0>         0.3068
     12 C11         0.7173    2.3138    4.6165 C.2       1 <0>        -0.3473
     13 S1          2.4195    2.8083    4.4413 S.3       1 <0>         0.0987
     14 C12        -0.2001    1.9544    3.5989 C.2       1 <0>         0.6221
     15 O1         -1.3378    1.6322    3.8907 O.2       1 <0>        -0.5566
     16 N2          0.1860    1.9690    2.3077 N.am      1 <0>        -0.7203
     17 C13        -0.7629    1.5973    1.2552 C.3       1 <0>         0.1415
     18 C14        -0.0127    1.0858    0.0080 C.3       1 <0>        -0.1322
     19 C15        -0.7845    1.6092   -1.2159 C.3       1 <0>        -0.1228
     20 C16        -1.9779    2.4205   -0.6705 C.3       1 <0>        -0.1244
     21 C17        -1.5309    2.8450    0.7505 C.3       1 <0>        -0.1358
     22 N3         -0.7274    2.0262    6.5131 N.pl3     1 <0>        -0.8221
     23 O2          6.3167    4.4979   10.7047 O.3       1 <0>        -0.3000
     24 C18         6.2126    4.9764   12.0492 C.3       1 <0>         0.0179
     25 C19         5.3402    3.9939   12.8420 C.3       1 <0>         0.0185
     26 O3          4.0492    3.9445   12.2267 O.3       1 <0>        -0.3039
     27 H1          0.7255    2.6473    8.8094 H         1 <0>         0.1458
     28 H2          1.9896    3.1960   10.8899 H         1 <0>         0.1493
     29 H3          6.0351    4.2107    8.1691 H         1 <0>         0.1570
     30 H4          1.0921    2.2256    2.0753 H         1 <0>         0.3994
     31 H5         -1.4596    0.8416    1.6179 H         1 <0>         0.0973
     32 H6          0.0021   -0.0041    0.0020 H         1 <0>         0.0723
     33 H7          1.0062    1.4728    0.0004 H         1 <0>         0.0704
     34 H8         -0.1404    2.2509   -1.8171 H         1 <0>         0.0668
     35 H9         -1.1443    0.7734   -1.8159 H         1 <0>         0.0671
     36 H10        -2.1585    3.2978   -1.2916 H         1 <0>         0.0686
     37 H11        -2.8710    1.7977   -0.6193 H         1 <0>         0.0683
     38 H12        -0.8713    3.7116    0.7051 H         1 <0>         0.0704
     39 H13        -2.3951    3.0518    1.3816 H         1 <0>         0.0713
     40 H14        -1.4551    1.7595    5.9298 H         1 <0>         0.4254
     41 H15        -0.8631    2.0609    7.4730 H         1 <0>         0.3985
     42 H16         7.2045    5.0317   12.4976 H         1 <0>         0.1297
     43 H17         5.7517    5.9642   12.0532 H         1 <0>         0.0838
     44 H18         5.7938    3.0030   12.8248 H         1 <0>         0.0824
     45 H19         5.2436    4.3368   13.8721 H         1 <0>         0.1286
@<TRIPOS>BOND
     1    1   10 ar
     2    1    2 ar
     3    1   27 1
     4    2    7 ar
     5    2    3 ar
     6    3    4 ar
     7    3   28 1
     8    4   26 1
     9    4    5 ar
    10    5    6 ar
    11    5   23 1
    12    6    7 ar
    13    6   29 1
    14    7    8 ar
    15    8    9 ar
    16    9   13 1
    17    9   10 ar
    18   10   11 1
    19   11   12 2
    20   11   22 1
    21   12   13 1
    22   12   14 1
    23   14   15 2
    24   14   16 am
    25   16   17 1
    26   16   30 1
    27   17   21 1
    28   17   18 1
    29   17   31 1
    30   18   19 1
    31   18   32 1
    32   18   33 1
    33   19   20 1
    34   19   34 1
    35   19   35 1
    36   20   21 1
    37   20   36 1
    38   20   37 1
    39   21   38 1
    40   21   39 1
    41   22   40 1
    42   22   41 1
    43   23   24 1
    44   24   25 1
    45   24   42 1
    46   24   43 1
    47   25   26 1
    48   25   44 1
    49   25   45 1
@<TRIPOS>MOLECULE
ZINC00601254
   40    42     0     0     0
SMALL
USER_CHARGES

@<TRIPOS>ATOM
      1 C1          0.0924   -2.8566    2.4867 C.3       1 <0>        -0.1126
      2 C2          0.0580   -2.0910    1.1891 C.ar      1 <0>        -0.0754
      3 C3          0.1564   -2.7637   -0.0133 C.ar      1 <0>        -0.1134
      4 C4          0.1244   -2.0622   -1.2043 C.ar      1 <0>        -0.1046
      5 C5         -0.0061   -0.6853   -1.1961 C.ar      1 <0>        -0.1168
      6 C6         -0.1045   -0.0067    0.0025 C.ar      1 <0>        -0.0971
      7 C7         -0.0785   -0.7091    1.2007 C.ar      1 <0>         0.1279
      8 N1         -0.1842   -0.0255    2.4162 N.am      1 <0>        -0.5779
      9 C8         -1.4946    0.1106    3.0518 C.3       1 <0>         0.3783
     10 H1         -2.1201   -0.7379    2.7745 H         1 <0>         0.1126
     11 N2         -1.3502    0.1512    4.5121 N.pl3     1 <0>        -0.7362
     12 C9         -0.3451    0.9416    5.0581 C.ar      1 <0>         0.3000
     13 C10        -0.4683    1.5242    6.3068 C.ar      1 <0>        -0.1913
     14 C11         0.5600    2.3064    6.8013 C.ar      1 <0>         0.1142
     15 C12         1.7119    2.5107    6.0550 C.ar      1 <0>        -0.7268
     16 C13         1.8502    1.9354    4.8094 C.ar      1 <0>         0.0925
     17 C14         0.8236    1.1429    4.3011 C.ar      1 <0>        -0.2158
     18 C15         0.9252    0.4915    2.9839 C.2       1 <0>         0.5745
     19 O1          1.9968    0.4238    2.4127 O.2       1 <0>        -0.5046
     20 S1          3.0074    3.5134    6.7037 S.o2      1 <0>         2.7024
     21 O2          3.2515    3.0559    8.0267 O.2       1 <0>        -0.9462
     22 O3          4.0244    3.5545    5.7120 O.2       1 <0>        -0.9552
     23 N3          2.4142    5.0537    6.8374 N.pl3     1 <0>        -1.2443
     24 Cl1         0.4078    3.0387    8.3679 Cl        1 <0>        -0.0232
     25 C16        -2.1567    1.4051    2.5754 C.3       1 <0>        -0.1816
     26 H2         -0.9267   -3.0597    2.8159 H         1 <0>         0.0697
     27 H3          0.6210   -3.7983    2.3391 H         1 <0>         0.0714
     28 H4          0.6077   -2.2654    3.2438 H         1 <0>         0.0626
     29 H5          0.2588   -3.8388   -0.0231 H         1 <0>         0.1284
     30 H6          0.2020   -2.5904   -2.1431 H         1 <0>         0.1280
     31 H7         -0.0307   -0.1402   -2.1281 H         1 <0>         0.1290
     32 H8         -0.2061    1.0685    0.0083 H         1 <0>         0.1248
     33 H9         -1.9430   -0.3617    5.0834 H         1 <0>         0.4216
     34 H10        -1.3626    1.3695    6.8922 H         1 <0>         0.1534
     35 H11         2.7483    2.0981    4.2321 H         1 <0>         0.1676
     36 H12         2.7507    5.6447    7.5290 H         1 <0>         0.4237
     37 H13         1.7302    5.3650    6.2240 H         1 <0>         0.4172
     38 H14        -2.3606    1.3370    1.5068 H         1 <0>         0.0787
     39 H15        -3.0918    1.5548    3.1149 H         1 <0>         0.0797
     40 H16        -1.4892    2.2457    2.7651 H         1 <0>         0.0650
@<TRIPOS>BOND
     1    1    2 1
     2    1   26 1
     3    1   27 1
     4    1   28 1
     5    2    7 ar
     6    2    3 ar
     7    3    4 ar
     8    3   29 1
     9    4    5 ar
    10    4   30 1
    11    5    6 ar
    12    5   31 1
    13    6    7 ar
    14    6   32 1
    15    7    8 1
    16    8   18 am
    17    8    9 1
    18    9   10 1
    19    9   11 1
    20    9   25 1
    21   11   12 1
    22   11   33 1
    23   12   17 ar
    24   12   13 ar
    25   13   14 ar
    26   13   34 1
    27   14   15 ar
    28   14   24 1
    29   15   16 ar
    30   15   20 1
    31   16   17 ar
    32   16   35 1
    33   17   18 1
    34   18   19 2
    35   20   21 2
    36   20   22 2
    37   20   23 1
    38   23   36 1
    39   23   37 1
    40   25   38 1
    41   25   39 1
    42   25   40 1
@<TRIPOS>MOLECULE
ZINC45340245
   43    46     0     0     0
SMALL
USER_CHARGES

@<TRIPOS>ATOM
      1 C1         -0.0155    1.3742    0.0392 C.ar      1 <0>        -0.1247
      2 C2          1.1728    2.0891    0.0308 C.ar      1 <0>        -0.1015
      3 C3          2.3859    1.4348    0.0093 C.ar      1 <0>        -0.1115
      4 C4          2.4250    0.0447   -0.0042 C.ar      1 <0>         0.0779
      5 C5          1.2212   -0.6767    0.0043 C.ar      1 <0>        -0.0496
      6 C6          0.0029   -0.0042    0.0261 C.ar      1 <0>        -0.0758
      7 C7          1.6044   -2.1021   -0.0147 C.2       1 <0>        -0.2670
      8 C8          2.9863   -2.1294   -0.0330 C.2       1 <0>         0.1678
      9 N1          3.4625   -0.8694   -0.0267 N.pl3     1 <0>        -0.4100
     10 C9          4.8213   -0.5316   -0.0417 C.ar      1 <0>         0.1676
     11 C10         5.2961    0.3994   -0.9572 C.ar      1 <0>        -0.1636
     12 C11         6.6364    0.7340   -0.9728 C.ar      1 <0>        -0.0399
     13 C12         7.5096    0.1439   -0.0780 C.ar      1 <0>        -0.1133
     14 C13         7.0403   -0.7885    0.8405 C.ar      1 <0>         0.2505
     15 C14         5.6936   -1.1221    0.8614 C.ar      1 <0>        -0.1882
     16 N2          7.9230   -1.3849    1.7450 N.pl3     1 <0>        -0.8634
     17 Cl1         9.1931    0.5669   -0.1015 Cl        1 <0>        -0.0596
     18 C15         0.7035   -3.2535   -0.0140 C.2       1 <0>         0.4258
     19 O1         -0.5001   -3.0835    0.0037 O.2       1 <0>        -0.4302
     20 C16         1.2609   -4.6360   -0.0349 C.2       1 <0>         0.4936
     21 O2          2.4628   -4.8057   -0.0526 O.2       1 <0>        -0.4925
     22 N3          0.4303   -5.6975   -0.0342 N.am      1 <0>        -0.6478
     23 C17         0.9470   -6.9867   -0.1522 C.ar      1 <0>         0.1815
     24 C18         2.1708   -7.3226    0.4256 C.ar      1 <0>        -0.1742
     25 C19         2.6470   -8.6097    0.2863 C.ar      1 <0>         0.1177
     26 N4          1.9602   -9.5165   -0.3828 N.ar      1 <0>        -0.4932
     27 C20         0.7987   -9.2379   -0.9438 C.ar      1 <0>         0.1191
     28 C21         0.2507   -7.9757   -0.8460 C.ar      1 <0>        -0.1947
     29 H1         -0.9591    1.8993    0.0606 H         1 <0>         0.1298
     30 H2          1.1475    3.1687    0.0409 H         1 <0>         0.1314
     31 H3          3.3053    2.0013    0.0026 H         1 <0>         0.1263
     32 H4         -0.9234   -0.5594    0.0326 H         1 <0>         0.1341
     33 H5          3.5914   -3.0238   -0.0491 H         1 <0>         0.2014
     34 H6          4.6166    0.8619   -1.6578 H         1 <0>         0.1388
     35 H7          7.0029    1.4578   -1.6858 H         1 <0>         0.1453
     36 H8          5.3257   -1.8430    1.5766 H         1 <0>         0.1398
     37 H9          8.8636   -1.1486    1.7323 H         1 <0>         0.4063
     38 H10         7.5949   -2.0353    2.3856 H         1 <0>         0.4058
     39 H11        -0.5269   -5.5642    0.0484 H         1 <0>         0.4256
     40 H12         2.7381   -6.5852    0.9741 H         1 <0>         0.1500
     41 H13         3.5941   -8.8787    0.7301 H         1 <0>         0.1611
     42 H14         0.2683  -10.0090   -1.4827 H         1 <0>         0.1622
     43 H15        -0.7025   -7.7556   -1.3036 H         1 <0>         0.1411
@<TRIPOS>BOND
     1    1    6 ar
     2    1    2 ar
     3    1   29 1
     4    2    3 ar
     5    2   30 1
     6    3    4 ar
     7    3   31 1
     8    4    9 1
     9    4    5 ar
    10    5    6 ar
    11    5    7 1
    12    6   32 1
    13    7    8 2
    14    7   18 1
    15    8    9 1
    16    8   33 1
    17    9   10 1
    18   10   15 ar
    19   10   11 ar
    20   11   12 ar
    21   11   34 1
    22   12   13 ar
    23   12   35 1
    24   13   14 ar
    25   13   17 1
    26   14   15 ar
    27   14   16 1
    28   15   36 1
    29   16   37 1
    30   16   38 1
    31   18   19 2
    32   18   20 1
    33   20   21 2
    34   20   22 am
    35   22   23 1
    36   22   39 1
    37   23   28 ar
    38   23   24 ar
    39   24   25 ar
    40   24   40 1
    41   25   26 ar
    42   25   41 1
    43   26   27 ar
    44   27   28 ar
    45   27   42 1
    46   28   43 1
@<TRIPOS>MOLECULE
ZINC05072040
   45    49     0     0     0
SMALL
USER_CHARGES

@<TRIPOS>ATOM
      1 C1         -0.0280    1.3245   -0.4899 C.ar      1 <0>        -0.0985
      2 C2          0.1890    0.4493    0.5597 C.ar      1 <0>        -0.1150
      3 C3          1.3949   -0.2106    0.6736 C.ar      1 <0>        -0.0734
      4 C4          2.3978    0.0059   -0.2739 C.ar      1 <0>        -0.0676
      5 C5          2.1718    0.8902   -1.3309 C.ar      1 <0>        -0.0902
      6 C6          0.9613    1.5437   -1.4322 C.ar      1 <0>        -0.1163
      7 C7          3.6917   -0.6967   -0.1582 C.2       1 <0>         0.2413
      8 C8          3.7108   -2.0395    0.0515 C.2       1 <0>        -0.1529
      9 C9          5.0619   -2.7158    0.1627 C.3       1 <0>         0.2491
     10 H1          5.1092   -3.2132    1.1315 H         1 <0>         0.0962
     11 N1          6.2530   -1.8606    0.0342 N.am      1 <0>        -0.7146
     12 C10         6.0831   -0.5406   -0.1726 C.2       1 <0>         0.7127
     13 O1          7.0655    0.1677   -0.2791 O.2       1 <0>        -0.5621
     14 N2          4.8701    0.0180   -0.2703 N.am      1 <0>        -0.6515
     15 C11         5.1378   -3.7783   -0.9033 C.ar      1 <0>         0.1056
     16 C12         6.1902   -3.7730   -1.7994 C.ar      1 <0>        -0.1646
     17 C13         6.2505   -4.7548   -2.7762 C.ar      1 <0>        -0.0702
     18 C14         5.2456   -5.7096   -2.8153 C.ar      1 <0>        -0.1696
     19 C15         4.2247   -5.6511   -1.8859 C.ar      1 <0>         0.1107
     20 N3          4.2023   -4.7053   -0.9670 N.ar      1 <0>        -0.4615
     21 C16         2.4706   -2.8045    0.1663 C.2       1 <0>         0.3819
     22 N4          2.0981   -3.5491    1.2583 N.pl3     1 <0>        -0.5922
     23 H2          2.6030   -3.6601    2.0791 H         1 <0>         0.4192
     24 C17         0.8673   -4.1108    0.9684 C.ar      1 <0>         0.0574
     25 C18         0.0044   -4.9432    1.6657 C.ar      1 <0>        -0.1136
     26 C19        -1.1837   -5.3403    1.0880 C.ar      1 <0>        -0.1040
     27 C20        -1.5229   -4.9132   -0.1879 C.ar      1 <0>        -0.1297
     28 C21        -0.6799   -4.0872   -0.8956 C.ar      1 <0>        -0.0672
     29 C22         0.5290   -3.6742   -0.3248 C.ar      1 <0>         0.0582
     30 N5          1.5374   -2.8805   -0.7594 N.2       1 <0>        -0.4648
     31 H3         -0.9755    1.8354   -0.5765 H         1 <0>         0.1263
     32 H4         -0.5875    0.2828    1.2917 H         1 <0>         0.1259
     33 H5          1.5632   -0.8929    1.4937 H         1 <0>         0.1176
     34 H6          2.9432    1.0625   -2.0668 H         1 <0>         0.1250
     35 H7          0.7851    2.2278   -2.2491 H         1 <0>         0.1287
     36 H8          7.1433   -2.2404    0.0976 H         1 <0>         0.4341
     37 H9          4.8151    0.9742   -0.4238 H         1 <0>         0.4292
     38 H10         6.9555   -3.0134   -1.7396 H         1 <0>         0.1344
     39 H11         7.0608   -4.7755   -3.4900 H         1 <0>         0.1361
     40 H12         5.2605   -6.4889   -3.5629 H         1 <0>         0.1362
     41 H13         3.4382   -6.3909   -1.9097 H         1 <0>         0.1549
     42 H14         0.2622   -5.2800    2.6589 H         1 <0>         0.1196
     43 H15        -1.8545   -5.9885    1.6324 H         1 <0>         0.1273
     44 H16        -2.4557   -5.2319   -0.6293 H         1 <0>         0.1268
     45 H17        -0.9504   -3.7590   -1.8884 H         1 <0>         0.1252
@<TRIPOS>BOND
     1    1    6 ar
     2    1    2 ar
     3    1   31 1
     4    2    3 ar
     5    2   32 1
     6    3    4 ar
     7    3   33 1
     8    4    5 ar
     9    4    7 1
    10    5    6 ar
    11    5   34 1
    12    6   35 1
    13    7   14 1
    14    7    8 2
    15    8    9 1
    16    8   21 1
    17    9   10 1
    18    9   11 1
    19    9   15 1
    20   11   12 am
    21   11   36 1
    22   12   13 2
    23   12   14 am
    24   14   37 1
    25   15   20 ar
    26   15   16 ar
    27   16   17 ar
    28   16   38 1
    29   17   18 ar
    30   17   39 1
    31   18   19 ar
    32   18   40 1
    33   19   20 ar
    34   19   41 1
    35   21   30 2
    36   21   22 1
    37   22   23 1
    38   22   24 1
    39   24   29 ar
    40   24   25 ar
    41   25   26 ar
    42   25   42 1
    43   26   27 ar
    44   26   43 1
    45   27   28 ar
    46   27   44 1
    47   28   29 ar
    48   28   45 1
    49   29   30 1
@<TRIPOS>MOLECULE
ZINC57146856
   56    58     0     0     0
SMALL
USER_CHARGES

@<TRIPOS>ATOM
      1 C1         -0.0165    1.3785    0.0261 C.ar      1 <0>        -0.0475
      2 C2          1.1691    2.0867    0.0186 C.ar      1 <0>        -0.2015
      3 C3          2.3811    1.4088   -0.0131 C.ar      1 <0>         0.2299
      4 C4          2.3961    0.0200   -0.0371 C.ar      1 <0>        -0.2012
      5 C5          1.2069   -0.6821   -0.0295 C.ar      1 <0>        -0.0488
      6 C6          0.0021   -0.0041    0.0020 C.ar      1 <0>        -0.1705
      7 C7         -1.2936   -0.7735    0.0107 C.3       1 <0>         0.1869
      8 N1         -1.7369   -0.9992   -1.3673 N.am      1 <0>        -0.7417
      9 C8         -2.8803   -1.6715   -1.6059 C.2       1 <0>         0.7008
     10 O1         -3.5440   -2.0908   -0.6774 O.2       1 <0>        -0.5917
     11 N2         -3.2881   -1.8791   -2.8736 N.am      1 <0>        -0.6206
     12 C9         -2.4733   -1.3728   -3.9553 C.3       1 <0>         0.1111
     13 C10        -2.9076    0.0732   -4.2999 C.3       1 <0>        -0.1396
     14 C11        -4.2207    0.0681   -4.9626 C.3       1 <0>        -0.1177
     15 C12        -5.3576   -0.4723   -4.1006 C.3       1 <0>        -0.1161
     16 C13        -5.3993   -1.9763   -4.2132 C.3       1 <0>        -0.1319
     17 C14        -4.5449   -2.6191   -3.1004 C.3       1 <0>         0.1282
     18 N3          3.5820    2.1220   -0.0212 N.pl3     1 <0>        -0.6274
     19 C15         4.8700    1.4204    0.0669 C.3       1 <0>         0.1163
     20 C16         5.6779    2.0161    1.2241 C.3       1 <0>        -0.1351
     21 C17         5.7984    3.5294    1.0310 C.3       1 <0>        -0.1102
     22 C18         4.4038    4.1594    1.0410 C.3       1 <0>        -0.1262
     23 H1          3.9086    3.9320    1.9850 H         1 <0>         0.1036
     24 C19         3.5816    3.5876   -0.1240 C.3       1 <0>         0.1405
     25 C20         4.5255    5.6532    0.8839 C.2       1 <0>         0.5244
     26 O2          4.0041    6.2082   -0.0601 O.2       1 <0>        -0.5402
     27 N4          5.2137    6.3725    1.7924 N.am      1 <0>        -0.8537
     28 H2         -0.9591    1.9048    0.0553 H         1 <0>         0.1221
     29 H3          1.1539    3.1665    0.0370 H         1 <0>         0.1247
     30 H4          3.3367   -0.5102   -0.0622 H         1 <0>         0.1242
     31 H5          1.2178   -1.7619   -0.0482 H         1 <0>         0.1222
     32 H6         -1.1431   -1.7330    0.5057 H         1 <0>         0.0704
     33 H7         -2.0516   -0.2028    0.5473 H         1 <0>         0.0704
     34 H8         -1.2074   -0.6646   -2.1080 H         1 <0>         0.3970
     35 H9         -1.4262   -1.3749   -3.6527 H         1 <0>         0.0720
     36 H10        -2.5987   -2.0081   -4.8321 H         1 <0>         0.0809
     37 H11        -2.9684    0.6598   -3.3832 H         1 <0>         0.0650
     38 H12        -2.1698    0.5228   -4.9645 H         1 <0>         0.0741
     39 H13        -4.4642    1.0892   -5.2562 H         1 <0>         0.0580
     40 H14        -4.1509   -0.5402   -5.8644 H         1 <0>         0.0597
     41 H15        -5.1916   -0.1899   -3.0610 H         1 <0>         0.0653
     42 H16        -6.3043   -0.0555   -4.4442 H         1 <0>         0.0628
     43 H17        -6.4304   -2.3173   -4.1198 H         1 <0>         0.0763
     44 H18        -5.0078   -2.2770   -5.1850 H         1 <0>         0.0655
     45 H19        -4.3059   -3.6450   -3.3805 H         1 <0>         0.0604
     46 H20        -5.1203   -2.6316   -2.1747 H         1 <0>         0.0911
     47 H21         4.6966    0.3600    0.2500 H         1 <0>         0.0871
     48 H22         5.4196    1.5472   -0.8658 H         1 <0>         0.0646
     49 H23         5.1707    1.8088    2.1664 H         1 <0>         0.0709
     50 H24         6.6727    1.5710    1.2403 H         1 <0>         0.0808
     51 H25         6.3938    3.9525    1.8401 H         1 <0>         0.0711
     52 H26         6.2835    3.7362    0.0770 H         1 <0>         0.0718
     53 H27         4.0283    3.8876   -1.0720 H         1 <0>         0.0741
     54 H28         2.5579    3.9576   -0.0669 H         1 <0>         0.0915
     55 H29         5.6307    5.9286    2.5474 H         1 <0>         0.4020
     56 H30         5.2921    7.3340    1.6913 H         1 <0>         0.4038
@<TRIPOS>BOND
     1    1    6 ar
     2    1    2 ar
     3    1   28 1
     4    2    3 ar
     5    2   29 1
     6    3    4 ar
     7    3   18 1
     8    4    5 ar
     9    4   30 1
    10    5    6 ar
    11    5   31 1
    12    6    7 1
    13    7    8 1
    14    7   32 1
    15    7   33 1
    16    8    9 am
    17    8   34 1
    18    9   10 2
    19    9   11 am
    20   11   17 1
    21   11   12 1
    22   12   13 1
    23   12   35 1
    24   12   36 1
    25   13   14 1
    26   13   37 1
    27   13   38 1
    28   14   15 1
    29   14   39 1
    30   14   40 1
    31   15   16 1
    32   15   41 1
    33   15   42 1
    34   16   17 1
    35   16   43 1
    36   16   44 1
    37   17   45 1
    38   17   46 1
    39   18   24 1
    40   18   19 1
    41   19   20 1
    42   19   47 1
    43   19   48 1
    44   20   21 1
    45   20   49 1
    46   20   50 1
    47   21   22 1
    48   21   51 1
    49   21   52 1
    50   22   23 1
    51   22   24 1
    52   22   25 1
    53   24   53 1
    54   24   54 1
    55   25   26 2
    56   25   27 am
    57   27   55 1
    58   27   56 1
@<TRIPOS>MOLECULE
ZINC67300592
   57    60     0     0     0
SMALL
USER_CHARGES

@<TRIPOS>ATOM
      1 C1         -0.0167    1.3781    0.0096 C.ar      1 <0>        -0.1247
      2 C2          1.1709    2.0855    0.0021 C.ar      1 <0>        -0.1171
      3 C3          2.3773    1.4107   -0.0130 C.ar      1 <0>        -0.1179
      4 C4          2.3960    0.0285   -0.0201 C.ar      1 <0>        -0.0791
      5 C5          1.2084   -0.6789   -0.0117 C.ar      1 <0>        -0.1167
      6 C6          0.0021   -0.0041    0.0020 C.ar      1 <0>        -0.1187
      7 C7          3.7112   -0.7071   -0.0376 C.3       1 <0>        -0.0754
      8 C8          4.1714   -0.9633    1.3989 C.3       1 <0>        -0.0876
      9 H1          4.2087   -0.0191    1.9423 H         1 <0>         0.0872
     10 C9          3.1871   -1.9101    2.0886 C.3       1 <0>        -0.1162
     11 C10         3.6473   -2.1662    3.5251 C.3       1 <0>        -0.1209
     12 C11         5.0393   -2.8009    3.5092 C.3       1 <0>        -0.1173
     13 C12         6.0236   -1.8541    2.8195 C.3       1 <0>        -0.1311
     14 C13         5.5634   -1.5979    1.3830 C.3       1 <0>         0.1526
     15 H2          6.2647   -0.9234    0.8917 H         1 <0>         0.0890
     16 N1          5.5133   -2.8669    0.6527 N.am      1 <0>        -0.7221
     17 C14         6.6274   -3.3546    0.0717 C.2       1 <0>         0.5200
     18 O1          7.6714   -2.7428    0.1535 O.2       1 <0>        -0.5320
     19 C15         6.5758   -4.6599   -0.6796 C.3       1 <0>        -0.1049
     20 C16         6.1334   -5.7767    0.2683 C.3       1 <0>        -0.1185
     21 C17         6.0694   -7.0998   -0.4989 C.3       1 <0>        -0.1102
     22 C18         7.4414   -7.4193   -1.0822 C.3       1 <0>         0.1211
     23 C19         7.9074   -6.3028   -2.0100 C.3       1 <0>        -0.1127
     24 C20         7.9638   -4.9829   -1.2366 C.3       1 <0>        -0.1077
     25 C21         8.4469   -7.6407    0.0241 C.2       1 <0>         0.5313
     26 O2          8.7960   -6.8442    0.8688 O.2       1 <0>        -0.4492
     27 N2          8.8744   -8.9115   -0.1263 N.am      1 <0>        -0.6817
     28 C22         8.2806   -9.5117   -1.1651 C.2       1 <0>         0.7042
     29 O3          8.5024  -10.6587   -1.5002 O.2       1 <0>        -0.5398
     30 N3          7.4097   -8.7018   -1.7971 N.am      1 <0>        -0.7187
     31 H3         -0.9591    1.9053    0.0259 H         1 <0>         0.1203
     32 H4          1.1563    3.1654    0.0076 H         1 <0>         0.1211
     33 H5          3.3051    1.9634   -0.0196 H         1 <0>         0.1205
     34 H6          1.2231   -1.7588   -0.0176 H         1 <0>         0.1196
     35 H7         -0.9258   -0.5567    0.0082 H         1 <0>         0.1207
     36 H8          3.5884   -1.6586   -0.5549 H         1 <0>         0.0720
     37 H9          4.4573   -0.1052   -0.5563 H         1 <0>         0.0741
     38 H10         2.1953   -1.4580    2.0999 H         1 <0>         0.0719
     39 H11         3.1498   -2.8542    1.5452 H         1 <0>         0.0580
     40 H12         3.6846   -1.2221    4.0685 H         1 <0>         0.0631
     41 H13         2.9461   -2.8408    4.0164 H         1 <0>         0.0623
     42 H14         5.3672   -2.9834    4.5325 H         1 <0>         0.0615
     43 H15         5.0020   -3.7450    2.9658 H         1 <0>         0.0608
     44 H16         6.0609   -0.9099    3.3629 H         1 <0>         0.0710
     45 H17         7.0154   -2.3062    2.8081 H         1 <0>         0.0695
     46 H18         4.6783   -3.3561    0.5872 H         1 <0>         0.3973
     47 H19         5.8645   -4.5781   -1.5015 H         1 <0>         0.0989
     48 H20         6.8492   -5.8646    1.0856 H         1 <0>         0.0889
     49 H21         5.1481   -5.5423    0.6714 H         1 <0>         0.0771
     50 H22         5.7684   -7.8983    0.1792 H         1 <0>         0.0797
     51 H23         5.3421   -7.0164   -1.3064 H         1 <0>         0.0904
     52 H24         8.8991   -6.5407   -2.3947 H         1 <0>         0.0796
     53 H25         7.2093   -6.2067   -2.8415 H         1 <0>         0.0887
     54 H26         8.2822   -4.1831   -1.9053 H         1 <0>         0.0823
     55 H27         8.6734   -5.0735   -0.4142 H         1 <0>         0.0903
     56 H28         9.5309   -9.3373    0.4469 H         1 <0>         0.4336
     57 H29         6.8684   -8.9221   -2.5713 H         1 <0>         0.4418
@<TRIPOS>BOND
     1    1    6 ar
     2    1    2 ar
     3    1   31 1
     4    2    3 ar
     5    2   32 1
     6    3    4 ar
     7    3   33 1
     8    4    5 ar
     9    4    7 1
    10    5    6 ar
    11    5   34 1
    12    6   35 1
    13    7    8 1
    14    7   36 1
    15    7   37 1
    16    8    9 1
    17    8   14 1
    18    8   10 1
    19   10   11 1
    20   10   38 1
    21   10   39 1
    22   11   12 1
    23   11   40 1
    24   11   41 1
    25   12   13 1
    26   12   42 1
    27   12   43 1
    28   13   14 1
    29   13   44 1
    30   13   45 1
    31   14   15 1
    32   14   16 1
    33   16   17 am
    34   16   46 1
    35   17   18 2
    36   17   19 1
    37   19   24 1
    38   19   20 1
    39   19   47 1
    40   20   21 1
    41   20   48 1
    42   20   49 1
    43   21   22 1
    44   21   50 1
    45   21   51 1
    46   22   30 1
    47   22   23 1
    48   22   25 1
    49   23   24 1
    50   23   52 1
    51   23   53 1
    52   24   54 1
    53   24   55 1
    54   25   26 2
    55   25   27 am
    56   27   28 am
    57   27   56 1
    58   28   29 2
    59   28   30 am
    60   30   57 1
@<TRIPOS>MOLECULE
ZINC02535920
   29    30     0     0     0
SMALL
USER_CHARGES
4-chloro-1-[(2,5-dichlorophenoxy)methyl]pyrazole-3-carbohydrazide
@<TRIPOS>ATOM
      1 C1         -1.2196    1.7503    0.0173 C.ar      1 <0>        -0.1247
      2 C2         -0.0126    1.0758    0.0080 C.ar      1 <0>        -0.0555
      3 C3          1.1752    1.7825    0.0004 C.ar      1 <0>        -0.0580
      4 C4          1.1558    3.1710    0.0076 C.ar      1 <0>         0.1567
      5 C5         -0.0557    3.8451    0.0223 C.ar      1 <0>        -0.1903
      6 C6         -1.2416    3.1335    0.0298 C.ar      1 <0>         0.0085
      7 Cl1        -2.7589    3.9768    0.0477 Cl        1 <0>        -0.0453
      8 O1          2.3227    3.8681    0.0006 O.3       1 <0>        -0.3080
      9 C7          2.2266    5.2939    0.0087 C.3       1 <0>         0.3080
     10 N1          3.5719    5.8740   -0.0004 N.pl3     1 <0>        -0.2867
     11 C8          4.7253    5.1604   -0.0144 C.2       1 <0>         0.0257
     12 C9          5.7457    6.0514   -0.0190 C.2       1 <0>        -0.1027
     13 C10         5.1340    7.3279   -0.0071 C.2       1 <0>         0.0152
     14 N2          3.8304    7.1324   -0.0020 N.2       1 <0>        -0.2439
     15 C11         5.8258    8.6325   -0.0074 C.2       1 <0>         0.6036
     16 O2          7.0407    8.6764   -0.0187 O.2       1 <0>        -0.4971
     17 N3          5.1103    9.7746    0.0049 N.am      1 <0>        -0.5649
     18 N4          5.7502   10.9815    0.0046 N.3       1 <0>        -0.5991
     19 Cl2         7.4459    5.7014   -0.0360 Cl        1 <0>         0.0028
     20 Cl3         2.6902    0.9350   -0.0175 Cl        1 <0>        -0.0366
     21 H1         -2.1468    1.1963    0.0187 H         1 <0>         0.1507
     22 H2          0.0021   -0.0041    0.0020 H         1 <0>         0.1566
     23 H3         -0.0733    4.9250    0.0276 H         1 <0>         0.1496
     24 H4          1.6816    5.6263   -0.8748 H         1 <0>         0.1096
     25 H5          1.6976    5.6173    0.9051 H         1 <0>         0.1092
     26 H6          4.8137    4.0841   -0.0203 H         1 <0>         0.1987
     27 H7          4.1410    9.7396    0.0139 H         1 <0>         0.4070
     28 H8          5.0874   11.7422    0.0145 H         1 <0>         0.3612
     29 H9          6.3918   11.0507    0.7802 H         1 <0>         0.3497
@<TRIPOS>BOND
     1    1    6 ar
     2    1    2 ar
     3    1   21 1
     4    2    3 ar
     5    2   22 1
     6    3    4 ar
     7    3   20 1
     8    4    5 ar
     9    4    8 1
    10    5    6 ar
    11    5   23 1
    12    6    7 1
    13    8    9 1
    14    9   10 1
    15    9   24 1
    16    9   25 1
    17   10   14 1
    18   10   11 1
    19   11   12 2
    20   11   26 1
    21   12   13 1
    22   12   19 1
    23   13   14 2
    24   13   15 1
    25   15   16 2
    26   15   17 am
    27   17   18 1
    28   17   27 1
    29   18   28 1
    30   18   29 1
@<TRIPOS>MOLECULE
ZINC46038341
   38    40     0     0     0
SMALL
USER_CHARGES

@<TRIPOS>ATOM
      1 C1         -0.0184    1.5028    0.0103 C.3       1 <0>        -0.1005
      2 C2          0.0021   -0.0041    0.0020 C.2       1 <0>        -0.0526
      3 C3          0.0087   -0.8769   -1.1714 C.ar      1 <0>        -0.1466
      4 C4         -0.0004   -0.6545   -2.5506 C.ar      1 <0>        -0.0537
      5 C5          0.0102   -1.7181   -3.4080 C.ar      1 <0>        -0.1375
      6 C6          0.0300   -3.0169   -2.9177 C.ar      1 <0>        -0.0752
      7 C7          0.0393   -3.2575   -1.5610 C.ar      1 <0>        -0.1136
      8 C8          0.0288   -2.1913   -0.6689 C.ar      1 <0>         0.0793
      9 O1          0.0337   -2.1131    0.6760 O.3       1 <0>        -0.1878
     10 C9          0.0240   -0.8264    1.0826 C.2       1 <0>        -0.0462
     11 C10         0.0318   -0.3820    2.4836 C.2       1 <0>         0.6086
     12 O2          0.0182    0.8061    2.7450 O.2       1 <0>        -0.5020
     13 N1          0.0540   -1.2907    3.4787 N.am      1 <0>        -0.5192
     14 N2          0.0615   -0.8671    4.8141 N.am      1 <0>        -0.5276
     15 C11         0.0837   -1.7758    5.8092 C.2       1 <0>         0.7153
     16 O3          0.0902   -1.4082    6.9681 O.2       1 <0>        -0.5632
     17 N3          0.0988   -3.0920    5.5196 N.am      1 <0>        -0.7392
     18 C12         0.1229   -4.0797    6.6013 C.3       1 <0>         0.1943
     19 C13         0.1360   -5.4675    6.0141 C.2       1 <0>        -0.1506
     20 C14        -1.0489   -6.1277    5.7477 C.2       1 <0>        -0.1491
     21 C15        -1.0020   -7.3751    5.2195 C.2       1 <0>        -0.1695
     22 S1          0.7564   -7.6525    5.0831 S.3       1 <0>         0.0509
     23 C16         1.3098   -6.0849    5.7340 C.2       1 <0>        -0.1500
     24 H1          1.0042    1.8801    0.0026 H         1 <0>         0.0830
     25 H2         -0.5455    1.8639   -0.8728 H         1 <0>         0.0740
     26 H3         -0.5286    1.8543    0.9071 H         1 <0>         0.0933
     27 H4         -0.0161    0.3538   -2.9373 H         1 <0>         0.1329
     28 H5          0.0029   -1.5474   -4.4744 H         1 <0>         0.1349
     29 H6          0.0379   -3.8479   -3.6075 H         1 <0>         0.1404
     30 H7          0.0543   -4.2722   -1.1914 H         1 <0>         0.1373
     31 H8          0.0649   -2.2380    3.2703 H         1 <0>         0.4254
     32 H9          0.0507    0.0802    5.0225 H         1 <0>         0.4461
     33 H10         0.0936   -3.3853    4.5951 H         1 <0>         0.3930
     34 H11         1.0171   -3.9332    7.2073 H         1 <0>         0.0811
     35 H12        -0.7626   -3.9574    7.2249 H         1 <0>         0.0804
     36 H13        -1.9978   -5.6567    5.9576 H         1 <0>         0.1369
     37 H14        -1.8168   -8.0312    4.9512 H         1 <0>         0.1882
     38 H15         2.3181   -5.7229    5.8702 H         1 <0>         0.1889
@<TRIPOS>BOND
     1    1    2 1
     2    1   24 1
     3    1   25 1
     4    1   26 1
     5    2   10 2
     6    2    3 1
     7    3    8 ar
     8    3    4 ar
     9    4    5 ar
    10    4   27 1
    11    5    6 ar
    12    5   28 1
    13    6    7 ar
    14    6   29 1
    15    7    8 ar
    16    7   30 1
    17    8    9 1
    18    9   10 1
    19   10   11 1
    20   11   12 2
    21   11   13 am
    22   13   14 1
    23   13   31 1
    24   14   15 am
    25   14   32 1
    26   15   16 2
    27   15   17 am
    28   17   18 1
    29   17   33 1
    30   18   19 1
    31   18   34 1
    32   18   35 1
    33   19   23 2
    34   19   20 1
    35   20   21 2
    36   20   36 1
    37   21   22 1
    38   21   37 1
    39   22   23 1
    40   23   38 1
@<TRIPOS>MOLECULE
ZINC55186545
   25    27     0     0     0
SMALL
USER_CHARGES

@<TRIPOS>ATOM
      1 C1          0.7990    1.3837   -1.1600 C.ar      1 <0>        -0.0743
      2 C2          1.1749    2.1144   -0.0825 C.ar      1 <0>         0.0288
      3 C3          1.5802    1.4660    1.1172 C.ar      1 <0>         0.0739
      4 C4          1.5788    0.0087    1.1529 C.ar      1 <0>         0.0845
      5 C5          1.1719   -0.6975   -0.0180 C.ar      1 <0>         0.2024
      6 C6          0.7959   -0.0101   -1.1312 C.ar      1 <0>         0.0044
      7 Cl1         0.3033   -0.8879   -2.5456 Cl        1 <0>        -0.0209
      8 N1          1.1581   -2.0947   -0.0217 N.am      1 <0>        -0.6624
      9 C7          0.0576   -2.7588    0.3838 C.2       1 <0>         0.6065
     10 O1         -0.9528   -2.1444    0.6699 O.2       1 <0>        -0.5137
     11 C8          0.0782   -4.2269    0.4805 C.2       1 <0>         0.0445
     12 C9         -1.0382   -4.9137    0.8873 C.2       1 <0>        -0.1547
     13 S1         -0.4400   -6.5967    0.8128 S.3       1 <0>         0.0188
     14 C10         1.2164   -6.2254    0.2546 C.2       1 <0>         0.3849
     15 N2          1.1813   -4.9110    0.1685 N.2       1 <0>        -0.5655
     16 N3          2.2609   -7.0918   -0.0204 N.pl3     1 <0>        -0.7935
     17 N4          1.9754   -0.4879    2.3244 N.2       1 <0>        -0.4848
     18 S2          2.3038    0.7877    3.2481 S.3       1 <0>         0.6779
     19 N5          1.9782    2.0182    2.2642 N.2       1 <0>        -0.4825
     20 Cl2         1.1623    3.8483   -0.1665 Cl        1 <0>        -0.0180
     21 H1          0.4903    1.8931   -2.0609 H         1 <0>         0.1669
     22 H2          1.9405   -2.5867   -0.3162 H         1 <0>         0.4252
     23 H3         -2.0103   -4.5403    1.1738 H         1 <0>         0.2087
     24 H4          2.1384   -8.0482    0.0855 H         1 <0>         0.4233
     25 H5          3.1151   -6.7424   -0.3189 H         1 <0>         0.4194
@<TRIPOS>BOND
     1    1    6 ar
     2    1    2 ar
     3    1   21 1
     4    2    3 ar
     5    2   20 1
     6    3   19 2
     7    3    4 ar
     8    4    5 ar
     9    4   17 2
    10    5    6 ar
    11    5    8 1
    12    6    7 1
    13    8    9 am
    14    8   22 1
    15    9   10 2
    16    9   11 1
    17   11   15 1
    18   11   12 2
    19   12   13 1
    20   12   23 1
    21   13   14 1
    22   14   15 2
    23   14   16 1
    24   16   24 1
    25   16   25 1
    26   17   18 1
    27   18   19 1
@<TRIPOS>MOLECULE
ZINC61864848
   49    51     0     0     0
SMALL
USER_CHARGES

@<TRIPOS>ATOM
      1 C1         -0.0187    1.5258    0.0104 C.3       1 <0>        -0.1579
      2 C2          0.0021   -0.0041    0.0020 C.3       1 <0>        -0.0654
      3 C3         -1.4023   -0.6137    0.3476 C.3       1 <0>        -0.0927
      4 C4         -1.0294   -2.1181    0.5180 C.3       1 <0>        -0.1226
      5 C5          0.3956   -2.1021    1.1169 C.3       1 <0>        -0.1135
      6 C6          0.7495   -0.5895    1.2518 C.3       1 <0>        -0.0749
      7 C7         -0.1678   -0.0752    2.4031 C.3       1 <0>         0.1664
      8 C8         -1.5928   -0.0912    1.8043 C.3       1 <0>        -0.1319
      9 N1          0.2096    1.2873    2.7869 N.am      1 <0>        -0.7357
     10 C9         -0.0661    1.7392    4.0263 C.2       1 <0>         0.7110
     11 O1         -0.6281    1.0160    4.8260 O.2       1 <0>        -0.5633
     12 N2          0.2811    2.9927    4.3794 N.am      1 <0>        -0.5303
     13 N3          0.9287    3.8260    3.4579 N.am      1 <0>        -0.5253
     14 C10         1.2759    5.0795    3.8109 C.2       1 <0>         0.5607
     15 O2          1.0272    5.4870    4.9287 O.2       1 <0>        -0.5165
     16 C11         1.9596    5.9593    2.8381 C.ar      1 <0>        -0.1010
     17 C12         2.2400    5.4930    1.5522 C.ar      1 <0>        -0.0889
     18 C13         2.8766    6.3120    0.6462 C.ar      1 <0>        -0.0738
     19 C14         3.2416    7.6091    1.0137 C.ar      1 <0>         0.0068
     20 C15         2.9609    8.0754    2.3001 C.ar      1 <0>        -0.0732
     21 C16         2.3192    7.2579    3.2039 C.ar      1 <0>        -0.0525
     22 C17         3.9039    8.4607    0.0720 C.1       1 <0>         0.2429
     23 N4          4.4293    9.1363   -0.6750 N.1       1 <0>        -0.3951
     24 C18         2.2390   -0.2586    1.3652 C.3       1 <0>        -0.1214
     25 C19         0.5613   -0.5552   -1.3111 C.3       1 <0>        -0.1383
     26 H1          1.0039    1.9031    0.0027 H         1 <0>         0.0549
     27 H2         -0.5459    1.8868   -0.8726 H         1 <0>         0.0634
     28 H3         -0.5289    1.8773    0.9072 H         1 <0>         0.0667
     29 H4         -2.2099   -0.3882   -0.3489 H         1 <0>         0.1006
     30 H5         -1.7235   -2.6065    1.2020 H         1 <0>         0.0674
     31 H6         -1.0297   -2.6215   -0.4487 H         1 <0>         0.0672
     32 H7          0.4020   -2.5826    2.0952 H         1 <0>         0.0680
     33 H8          1.0959   -2.5976    0.4445 H         1 <0>         0.0717
     34 H9         -0.1093   -0.7430    3.2627 H         1 <0>         0.0971
     35 H10        -2.0125    0.9147    1.7954 H         1 <0>         0.0707
     36 H11        -2.2349   -0.7669    2.3694 H         1 <0>         0.0746
     37 H12         0.6580    1.8643    2.1489 H         1 <0>         0.3910
     38 H13         0.0827    3.3179    5.2714 H         1 <0>         0.4452
     39 H14         1.1271    3.5008    2.5658 H         1 <0>         0.4171
     40 H15         1.9581    4.4899    1.2682 H         1 <0>         0.1330
     41 H16         3.0939    5.9511   -0.3483 H         1 <0>         0.1444
     42 H17         3.2430    9.0783    2.5845 H         1 <0>         0.1460
     43 H18         2.0982    7.6199    4.1972 H         1 <0>         0.1525
     44 H19         2.3681    0.8225    1.4171 H         1 <0>         0.0527
     45 H20         2.6454   -0.7168    2.2668 H         1 <0>         0.0621
     46 H21         2.7646   -0.6458    0.4923 H         1 <0>         0.0658
     47 H22         1.5859   -0.2077   -1.4440 H         1 <0>         0.0556
     48 H23         0.5480   -1.6448   -1.2828 H         1 <0>         0.0629
     49 H24        -0.0515   -0.2058   -2.1421 H         1 <0>         0.0559
@<TRIPOS>BOND
     1    1    2 1
     2    1   26 1
     3    1   27 1
     4    1   28 1
     5    2    6 1
     6    2    3 1
     7    2   25 1
     8    3    8 1
     9    3    4 1
    10    3   29 1
    11    4    5 1
    12    4   30 1
    13    4   31 1
    14    5    6 1
    15    5   32 1
    16    5   33 1
    17    6    7 1
    18    6   24 1
    19    7    8 1
    20    7    9 1
    21    7   34 1
    22    8   35 1
    23    8   36 1
    24    9   10 am
    25    9   37 1
    26   10   11 2
    27   10   12 am
    28   12   13 1
    29   12   38 1
    30   13   14 am
    31   13   39 1
    32   14   15 2
    33   14   16 1
    34   16   21 ar
    35   16   17 ar
    36   17   18 ar
    37   17   40 1
    38   18   19 ar
    39   18   41 1
    40   19   20 ar
    41   19   22 1
    42   20   21 ar
    43   20   42 1
    44   21   43 1
    45   22   23 3
    46   24   44 1
    47   24   45 1
    48   24   46 1
    49   25   47 1
    50   25   48 1
    51   25   49 1
@<TRIPOS>MOLECULE
ZINC66740318
   36    39     0     0     0
SMALL
USER_CHARGES

@<TRIPOS>ATOM
      1 C1         -0.0184    1.5028    0.0103 C.3       1 <0>        -0.0749
      2 C2          0.0021   -0.0041    0.0020 C.2       1 <0>        -0.0217
      3 C3          0.0080   -0.7950   -1.0751 C.2       1 <0>         0.0944
      4 C4          0.0219   -2.1377   -0.5738 C.2       1 <0>        -0.0536
      5 N1          0.0315   -2.0622    0.7236 N.2       1 <0>        -0.1947
      6 N2          0.0241   -0.8243    1.0940 N.pl3     1 <0>        -0.3896
      7 H1          0.0304   -0.5211    2.0153 H         1 <0>         0.4512
      8 C5          0.0146   -3.2677   -1.5232 C.2       1 <0>         0.6238
      9 O1         -0.1484   -4.4131   -1.1489 O.2       1 <0>        -0.5049
     10 N3          0.1977   -2.9679   -2.8309 N.am      1 <0>        -0.7225
     11 C6          0.5671   -1.6392   -3.3033 C.3       1 <0>         0.4828
     12 H2          0.2014   -1.5121   -4.3223 H         1 <0>         0.1327
     13 N4          0.0073   -0.5712   -2.4587 N.pl3     1 <0>        -0.7267
     14 C7          2.0695   -1.5215   -3.3056 C.2       1 <0>        -0.0492
     15 C8          2.9363   -2.5339   -3.5022 C.2       1 <0>        -0.1804
     16 C9          4.2334   -1.9879   -3.4239 C.2       1 <0>        -0.1871
     17 C10         4.0846   -0.6586   -3.1813 C.2       1 <0>         0.0315
     18 O2          2.7666   -0.3889   -3.1179 O.3       1 <0>        -0.1509
     19 C11         5.1792    0.3215   -3.0210 C.ar      1 <0>        -0.0268
     20 C12         6.5090   -0.0908   -3.1217 C.ar      1 <0>        -0.0683
     21 C13         7.5265    0.8281   -2.9712 C.ar      1 <0>        -0.1479
     22 C14         7.2306    2.1584   -2.7199 C.ar      1 <0>         0.1063
     23 C15         5.9122    2.5732   -2.6188 C.ar      1 <0>        -0.1497
     24 C16         4.8868    1.6640   -2.7739 C.ar      1 <0>        -0.0722
     25 F1          8.2312    3.0541   -2.5723 F         1 <0>        -0.1350
     26 H3          1.0042    1.8801    0.0026 H         1 <0>         0.0764
     27 H4         -0.5455    1.8639   -0.8728 H         1 <0>         0.0799
     28 H5         -0.5286    1.8543    0.9071 H         1 <0>         0.0715
     29 H6          0.0774   -3.6729   -3.4862 H         1 <0>         0.4181
     30 H7         -0.3445    0.2479   -2.8411 H         1 <0>         0.4185
     31 H8          2.6849   -3.5682   -3.6851 H         1 <0>         0.1524
     32 H9          5.1653   -2.5224   -3.5345 H         1 <0>         0.1531
     33 H10         6.7407   -1.1274   -3.3169 H         1 <0>         0.1398
     34 H11         8.5557    0.5102   -3.0489 H         1 <0>         0.1438
     35 H12         5.6873    3.6111   -2.4229 H         1 <0>         0.1416
     36 H13         3.8596    1.9891   -2.6994 H         1 <0>         0.1383
@<TRIPOS>BOND
     1    1    2 1
     2    1   26 1
     3    1   27 1
     4    1   28 1
     5    2    6 1
     6    2    3 2
     7    3   13 1
     8    3    4 1
     9    4    5 2
    10    4    8 1
    11    5    6 1
    12    6    7 1
    13    8    9 2
    14    8   10 am
    15   10   11 1
    16   10   29 1
    17   11   12 1
    18   11   13 1
    19   11   14 1
    20   13   30 1
    21   14   18 1
    22   14   15 2
    23   15   16 1
    24   15   31 1
    25   16   17 2
    26   16   32 1
    27   17   18 1
    28   17   19 1
    29   19   24 ar
    30   19   20 ar
    31   20   21 ar
    32   20   33 1
    33   21   22 ar
    34   21   34 1
    35   22   23 ar
    36   22   25 1
    37   23   24 ar
    38   23   35 1
    39   24   36 1
@<TRIPOS>MOLECULE
ZINC20429864
   32    33     0     0     0
SMALL
USER_CHARGES
4-[(1S)-1-[(3-chloro-4-fluoro-phenyl)amino]ethyl]benzene-1,3-diol
@<TRIPOS>ATOM
      1 C1         -3.8539    2.8332    1.5570 C.3       1 <0>        -0.1615
      2 C2         -3.7161    3.0728    0.0522 C.3       1 <0>         0.2087
      3 H1         -3.7387    2.1233   -0.5027 H         1 <0>         0.0903
      4 C3         -4.8347    3.9660   -0.4188 C.ar      1 <0>        -0.1757
      5 C4         -4.6480    5.3341   -0.4770 C.ar      1 <0>        -0.0327
      6 C5         -5.6697    6.1550   -0.9137 C.ar      1 <0>        -0.1994
      7 C6         -6.8904    5.6084   -1.2845 C.ar      1 <0>         0.1985
      8 C7         -7.0820    4.2370   -1.2216 C.ar      1 <0>        -0.3085
      9 C8         -6.0532    3.4146   -0.7883 C.ar      1 <0>         0.2080
     10 O1         -6.2382    2.0698   -0.7252 O.3       1 <0>        -0.5041
     11 O2         -7.8970    6.4170   -1.7083 O.3       1 <0>        -0.5064
     12 N1         -2.4288    3.7154   -0.2241 N.pl3     1 <0>        -0.7484
     13 C9         -1.2794    2.9363   -0.3875 C.ar      1 <0>         0.2319
     14 C10        -1.3578    1.5527   -0.2929 C.ar      1 <0>        -0.1724
     15 C11        -0.2204    0.7849   -0.4494 C.ar      1 <0>        -0.0886
     16 C12         0.9960    1.3923   -0.7105 C.ar      1 <0>         0.0411
     17 C13         1.0763    2.7720   -0.8101 C.ar      1 <0>        -0.0204
     18 C14        -0.0589    3.5443   -0.6494 C.ar      1 <0>        -0.1683
     19 Cl1         2.6029    3.5309   -1.1376 Cl        1 <0>        -0.0511
     20 F1          2.1061    0.6388   -0.8687 F         1 <0>        -0.1341
     21 H2         -3.0374    2.1812    1.9007 H         1 <0>         0.0616
     22 H3         -4.8204    2.3507    1.7645 H         1 <0>         0.0672
     23 H4         -3.8030    3.7954    2.0876 H         1 <0>         0.0599
     24 H5         -3.7004    5.7617   -0.1844 H         1 <0>         0.1315
     25 H6         -5.5198    7.2235   -0.9629 H         1 <0>         0.1314
     26 H7         -8.0313    3.8097   -1.5093 H         1 <0>         0.1323
     27 H8         -7.2044    1.6332   -1.0182 H         1 <0>         0.4369
     28 H9         -8.8643    5.9833   -2.0021 H         1 <0>         0.4357
     29 H10        -2.3666    4.8108   -0.3030 H         1 <0>         0.4170
     30 H11        -2.3070    1.0778   -0.0937 H         1 <0>         0.1372
     31 H12        -0.2808   -0.2907   -0.3725 H         1 <0>         0.1430
     32 H13         0.0034    4.6197   -0.7277 H         1 <0>         0.1395
@<TRIPOS>BOND
     1    1    2 1
     2    1   21 1
     3    1   22 1
     4    1   23 1
     5    2    3 1
     6    2    4 1
     7    2   12 1
     8    4    9 ar
     9    4    5 ar
    10    5    6 ar
    11    5   24 1
    12    6    7 ar
    13    6   25 1
    14    7    8 ar
    15    7   11 1
    16    8    9 ar
    17    8   26 1
    18    9   10 1
    19   10   27 1
    20   11   28 1
    21   12   13 1
    22   12   29 1
    23   13   18 ar
    24   13   14 ar
    25   14   15 ar
    26   14   30 1
    27   15   16 ar
    28   15   31 1
    29   16   17 ar
    30   16   20 1
    31   17   18 ar
    32   17   19 1
    33   18   32 1
@<TRIPOS>MOLECULE
ZINC37348883
   31    33     0     0     0
SMALL
USER_CHARGES

@<TRIPOS>ATOM
      1 C1         -0.0167    1.3786    0.0096 C.ar      1 <0>        -0.1082
      2 C2          1.1675    2.0879    0.0021 C.ar      1 <0>        -0.0862
      3 C3          2.3841    1.4084   -0.0131 C.ar      1 <0>        -0.0042
      4 C4          2.3983    0.0147   -0.0207 C.ar      1 <0>        -0.0806
      5 C5          1.2076   -0.6850   -0.0131 C.ar      1 <0>        -0.0359
      6 C6          0.0021   -0.0041    0.0020 C.ar      1 <0>        -0.1017
      7 Cl1         1.2224   -2.4209   -0.0230 Cl        1 <0>        -0.0653
      8 C7          3.6593    2.1656   -0.0217 C.2       1 <0>         0.1628
      9 C8          4.8626    1.7761    0.6182 C.2       1 <0>        -0.2696
     10 C9          5.7996    2.7592    0.3614 C.2       1 <0>         0.3896
     11 N1          5.1952    3.7062   -0.4010 N.pl3     1 <0>        -0.4945
     12 H1          5.6112    4.5164   -0.7348 H         1 <0>         0.4405
     13 N2          3.8720    3.3117   -0.6287 N.2       1 <0>        -0.2863
     14 N3          7.1162    2.7756    0.8024 N.pl3     1 <0>        -0.8469
     15 C10         5.0759    0.5447    1.4149 C.ar      1 <0>        -0.0007
     16 C11         4.3801    0.3543    2.6080 C.ar      1 <0>        -0.0759
     17 C12         4.5818   -0.7940    3.3460 C.ar      1 <0>        -0.1483
     18 C13         5.4740   -1.7569    2.9032 C.ar      1 <0>         0.0949
     19 C14         6.1677   -1.5722    1.7183 C.ar      1 <0>        -0.1502
     20 C15         5.9689   -0.4297    0.9707 C.ar      1 <0>        -0.0909
     21 F1          5.6685   -2.8794    3.6294 F         1 <0>        -0.1405
     22 H2         -0.9598    1.9047    0.0260 H         1 <0>         0.1368
     23 H3          1.1512    3.1677    0.0077 H         1 <0>         0.1340
     24 H4          3.3383   -0.5169   -0.0328 H         1 <0>         0.1374
     25 H5         -0.9269   -0.5548    0.0079 H         1 <0>         0.1355
     26 H6          7.4547    2.0471    1.3461 H         1 <0>         0.4198
     27 H7          7.6975    3.5155    0.5667 H         1 <0>         0.4040
     28 H8          3.6846    1.1045    2.9542 H         1 <0>         0.1303
     29 H9          4.0435   -0.9423    4.2705 H         1 <0>         0.1351
     30 H10         6.8625   -2.3255    1.3774 H         1 <0>         0.1350
     31 H11         6.5068   -0.2886    0.0449 H         1 <0>         0.1301
@<TRIPOS>BOND
     1    1    6 ar
     2    1    2 ar
     3    1   22 1
     4    2    3 ar
     5    2   23 1
     6    3    4 ar
     7    3    8 1
     8    4    5 ar
     9    4   24 1
    10    5    6 ar
    11    5    7 1
    12    6   25 1
    13    8   13 2
    14    8    9 1
    15    9   10 2
    16    9   15 1
    17   10   11 1
    18   10   14 1
    19   11   12 1
    20   11   13 1
    21   14   26 1
    22   14   27 1
    23   15   20 ar
    24   15   16 ar
    25   16   17 ar
    26   16   28 1
    27   17   18 ar
    28   17   29 1
    29   18   19 ar
    30   18   21 1
    31   19   20 ar
    32   19   30 1
    33   20   31 1
@<TRIPOS>MOLECULE
ZINC49515602
   37    39     0     0     0
SMALL
USER_CHARGES

@<TRIPOS>ATOM
      1 C1         -0.0187    1.5258    0.0104 C.3       1 <0>        -0.1659
      2 C2          0.0021   -0.0041    0.0020 C.3       1 <0>         0.1930
      3 H1          0.5293   -0.3651    0.8851 H         1 <0>         0.0910
      4 C3          0.7074   -0.4901   -1.2379 C.ar      1 <0>        -0.0859
      5 C4          0.0373   -0.5215   -2.4466 C.ar      1 <0>        -0.1016
      6 C5          0.6837   -0.9671   -3.5841 C.ar      1 <0>        -0.1057
      7 C6          2.0017   -1.3818   -3.5129 C.ar      1 <0>        -0.0343
      8 C7          2.6718   -1.3501   -2.3029 C.ar      1 <0>        -0.1053
      9 C8          2.0261   -0.8990   -1.1672 C.ar      1 <0>        -0.0956
     10 Cl1         2.8141   -1.9422   -4.9410 Cl        1 <0>        -0.0665
     11 N1         -1.3723   -0.5112    0.0124 N.pl3     1 <0>        -0.7409
     12 C9         -2.0524   -0.6604    1.2231 C.ar      1 <0>         0.1789
     13 C10        -1.4361   -0.3265    2.4098 C.ar      1 <0>        -0.1549
     14 C11        -2.1031   -0.4707    3.6223 C.ar      1 <0>        -0.1566
     15 C12        -3.3935   -0.9498    3.6678 C.ar      1 <0>         0.1935
     16 C13        -4.0535   -1.3010    2.4716 C.ar      1 <0>         0.1115
     17 C14        -3.3751   -1.1481    1.2375 C.ar      1 <0>        -0.1034
     18 C15        -4.0384   -1.4940    0.0471 C.ar      1 <0>        -0.0595
     19 C16        -5.3198   -1.9607    0.1346 C.ar      1 <0>        -0.1756
     20 C17        -5.9315   -2.0817    1.3800 C.ar      1 <0>         0.1210
     21 N2         -5.3056   -1.7687    2.4887 N.ar      1 <0>        -0.4698
     22 N3         -4.0477   -1.0883    4.8967 N.pl3     1 <0>        -0.8671
     23 H2          1.0039    1.9031    0.0027 H         1 <0>         0.0668
     24 H3         -0.5459    1.8868   -0.8726 H         1 <0>         0.0604
     25 H4         -0.5289    1.8773    0.9072 H         1 <0>         0.0674
     26 H5         -0.9917   -0.1981   -2.5020 H         1 <0>         0.1288
     27 H6          0.1599   -0.9920   -4.5282 H         1 <0>         0.1353
     28 H7          3.7006   -1.6740   -2.2466 H         1 <0>         0.1365
     29 H8          2.5506   -0.8697   -0.2235 H         1 <0>         0.1353
     30 H9         -1.8100   -0.7432   -0.8215 H         1 <0>         0.3950
     31 H10        -0.4242    0.0509    2.3985 H         1 <0>         0.1251
     32 H11        -1.6017   -0.2035    4.5408 H         1 <0>         0.1255
     33 H12        -3.5488   -1.3934   -0.9102 H         1 <0>         0.1289
     34 H13        -5.8576   -2.2349   -0.7609 H         1 <0>         0.1354
     35 H14        -6.9446   -2.4519    1.4346 H         1 <0>         0.1574
     36 H15        -3.5923   -0.8467    5.7185 H         1 <0>         0.3970
     37 H16        -4.9565   -1.4259    4.9271 H         1 <0>         0.4050
@<TRIPOS>BOND
     1    1    2 1
     2    1   23 1
     3    1   24 1
     4    1   25 1
     5    2    3 1
     6    2    4 1
     7    2   11 1
     8    4    9 ar
     9    4    5 ar
    10    5    6 ar
    11    5   26 1
    12    6    7 ar
    13    6   27 1
    14    7    8 ar
    15    7   10 1
    16    8    9 ar
    17    8   28 1
    18    9   29 1
    19   11   12 1
    20   11   30 1
    21   12   17 ar
    22   12   13 ar
    23   13   14 ar
    24   13   31 1
    25   14   15 ar
    26   14   32 1
    27   15   16 ar
    28   15   22 1
    29   16   21 ar
    30   16   17 ar
    31   17   18 ar
    32   18   19 ar
    33   18   33 1
    34   19   20 ar
    35   19   34 1
    36   20   21 ar
    37   20   35 1
    38   22   36 1
    39   22   37 1
@<TRIPOS>MOLECULE
ZINC51001170
   38    39     0     0     0
SMALL
NO_CHARGES

@<TRIPOS>ATOM
      1 C1         -0.0923    1.4157    0.0838 C.3       1 <0>        -0.1459
      2 C2          0.0378   -0.1085    0.0546 C.3       1 <0>         0.0313
      3 C3          0.9644   -0.5630    1.1840 C.3       1 <0>        -0.1524
      4 C4         -1.3424   -0.7419    0.2411 C.3       1 <0>        -0.1415
      5 C5          0.6128   -0.5382   -1.2705 C.cat     1 <0>         0.0338
      6 N1         -0.0558   -1.1952   -2.1511 N.pl3     1 <0>        -0.6675
      7 C6          0.8215   -1.4372   -3.3069 C.3       1 <0>         0.2823
      8 C7          2.1323   -0.7847   -2.9109 C.cat     1 <0>        -0.0342
      9 N2          1.8940   -0.2633   -1.6574 N.pl3     1 <0>        -0.3449
     10 C8          2.8728    0.4749   -0.8554 C.3       1 <0>         0.0624
     11 N3          3.2259   -0.7265   -3.5970 N.pl3     1 <0>        -0.8249
     12 C9          1.0118   -2.9160   -3.5262 C.ar      1 <0>        -0.0891
     13 C10         1.1365   -3.7648   -2.4422 C.ar      1 <0>        -0.0882
     14 C11         1.3106   -5.1212   -2.6428 C.ar      1 <0>        -0.0947
     15 C12         1.3600   -5.6293   -3.9285 C.ar      1 <0>        -0.0946
     16 C13         1.2352   -4.7796   -5.0128 C.ar      1 <0>        -0.0924
     17 C14         1.0558   -3.4240   -4.8111 C.ar      1 <0>        -0.1107
     18 Br1         1.5987   -7.4849   -4.2036 Br        1 <0>        -0.0576
     19 H1          0.9004    1.8655    0.0676 H         1 <0>         0.0520
     20 H2         -0.6566    1.7489   -0.7872 H         1 <0>         0.0579
     21 H3         -0.6136    1.7184    0.9920 H         1 <0>         0.0567
     22 H4          0.5485   -0.2522    2.1424 H         1 <0>         0.0572
     23 H5          1.0571   -1.6489    1.1632 H         1 <0>         0.0561
     24 H6          1.9477   -0.1118    1.0511 H         1 <0>         0.0564
     25 H7         -2.0025   -0.4181   -0.5636 H         1 <0>         0.0571
     26 H8         -1.2497   -1.8277    0.2202 H         1 <0>         0.0584
     27 H9         -1.7583   -0.4311    1.1995 H         1 <0>         0.0621
     28 H10         3.4593   -0.2265   -0.2620 H         1 <0>         0.0741
     29 H11         3.5352    1.0348   -1.5155 H         1 <0>         0.0777
     30 H12         2.3522    1.1655   -0.1920 H         1 <0>         0.0941
     31 H13         3.2686   -1.1324   -4.4769 H         1 <0>         0.4032
     32 H14         0.4131   -0.9682   -4.2021 H         1 <0>         0.0474
     33 H15         1.0982   -3.3680   -1.4385 H         1 <0>         0.1267
     34 H16         1.4083   -5.7843   -1.7960 H         1 <0>         0.1270
     35 H17         1.2736   -5.1758   -6.0167 H         1 <0>         0.1293
     36 H18         0.9543   -2.7610   -5.6576 H         1 <0>         0.1281
     37 H19        -0.9787   -1.4819   -2.0674 H         1 <0>         0.4221
     38 H20         4.0041   -0.2769   -3.2320 H         1 <0>         0.3850
@<TRIPOS>BOND
     1    1    2 1
     2    1   19 1
     3    1   20 1
     4    1   21 1
     5    2    3 1
     6    2    4 1
     7    2    5 1
     8    3   22 1
     9    3   23 1
    10    3   24 1
    11    4   25 1
    12    4   26 1
    13    4   27 1
    14    5    6 2
    15    5    9 1
    16    6    7 1
    17    6   37 1
    18    7   12 1
    19    7   32 1
    20    7    8 1
    21    8    9 1
    22    8   11 2
    23    9   10 1
    24   10   28 1
    25   10   29 1
    26   10   30 1
    27   11   31 1
    28   11   38 1
    29   12   17 ar
    30   12   13 ar
    31   13   14 ar
    32   13   33 1
    33   14   15 ar
    34   14   34 1
    35   15   16 ar
    36   15   18 1
    37   16   17 ar
    38   16   35 1
    39   17   36 1
@<TRIPOS>MOLECULE
ZINC61367678
   40    42     0     0     0
SMALL
USER_CHARGES

@<TRIPOS>ATOM
      1 C1         -0.0231    1.5366    0.0167 C.3       1 <0>        -0.1567
      2 C2          0.0063    0.0069    0.0052 C.3       1 <0>         0.2126
      3 H1         -1.0142   -0.3761    0.0097 H         1 <0>         0.0979
      4 C3          0.7174   -0.4725   -1.2339 C.2       1 <0>        -0.1283
      5 C4         -0.0017   -0.9021   -2.3335 C.2       1 <0>        -0.1505
      6 C5          0.6686   -1.3272   -3.4322 C.2       1 <0>        -0.1663
      7 S1          2.3694   -1.1260   -2.9279 S.3       1 <0>         0.0481
      8 C6          2.0717   -0.4837   -1.2890 C.2       1 <0>        -0.1748
      9 N1          0.7147   -0.4768    1.1928 N.pl3     1 <0>        -0.7109
     10 C7          0.0358   -0.6310    2.3882 C.ar      1 <0>         0.4488
     11 C8          0.6889   -1.1965    3.4979 C.ar      1 <0>        -0.2313
     12 C9         -0.0279   -1.3421    4.6883 C.ar      1 <0>         0.0107
     13 C10        -1.3515   -0.9216    4.7308 C.ar      1 <0>        -0.1835
     14 C11        -1.9245   -0.3700    3.6053 C.ar      1 <0>         0.2111
     15 N2         -1.2216   -0.2421    2.4861 N.ar      1 <0>        -0.5383
     16 C12        -3.3493    0.1236    3.5872 C.3       1 <0>        -0.0730
     17 C13        -4.1373   -0.4660    4.7546 C.3       1 <0>        -0.1195
     18 C14        -3.3493   -0.2176    6.0462 C.3       1 <0>        -0.1227
     19 C15        -2.1012   -1.0979    6.0245 C.3       1 <0>        -0.0683
     20 C16         2.0947   -1.6254    3.4072 C.2       1 <0>         0.4090
     21 S2          3.3464   -0.5653    3.8975 S.2       1 <0>        -0.5381
     22 N3          2.3960   -2.8525    2.9382 N.pl3     1 <0>        -0.7543
     23 H2          0.9974    1.9197    0.0122 H         1 <0>         0.0565
     24 H3         -0.5502    1.8965   -0.8669 H         1 <0>         0.0663
     25 H4         -0.5374    1.8834    0.9130 H         1 <0>         0.0689
     26 H5         -1.0816   -0.8995   -2.3172 H         1 <0>         0.1372
     27 H6          0.2758   -1.6930   -4.3694 H         1 <0>         0.1886
     28 H7          2.7855   -0.1831   -0.5363 H         1 <0>         0.1812
     29 H8          1.6598   -0.6890    1.1409 H         1 <0>         0.4040
     30 H9          0.4390   -1.7746    5.5608 H         1 <0>         0.1380
     31 H10        -3.3540    1.2109    3.6632 H         1 <0>         0.0895
     32 H11        -3.8203   -0.1725    2.6498 H         1 <0>         0.0876
     33 H12        -5.1115    0.0184    4.8209 H         1 <0>         0.0754
     34 H13        -4.2671   -1.5378    4.6050 H         1 <0>         0.0678
     35 H14        -3.0581    0.8313    6.1027 H         1 <0>         0.0683
     36 H15        -3.9655   -0.4751    6.9076 H         1 <0>         0.0719
     37 H16        -2.3959   -2.1420    6.1298 H         1 <0>         0.0742
     38 H17        -1.4527   -0.8225    6.8562 H         1 <0>         0.0749
     39 H18         1.6868   -3.4531    2.6604 H         1 <0>         0.4055
     40 H19         3.3220   -3.1350    2.8785 H         1 <0>         0.4227
@<TRIPOS>BOND
     1    1    2 1
     2    1   23 1
     3    1   24 1
     4    1   25 1
     5    2    3 1
     6    2    4 1
     7    2    9 1
     8    4    8 2
     9    4    5 1
    10    5    6 2
    11    5   26 1
    12    6    7 1
    13    6   27 1
    14    7    8 1
    15    8   28 1
    16    9   10 1
    17    9   29 1
    18   10   15 ar
    19   10   11 ar
    20   11   12 ar
    21   11   20 1
    22   12   13 ar
    23   12   30 1
    24   13   19 1
    25   13   14 ar
    26   14   15 ar
    27   14   16 1
    28   16   17 1
    29   16   31 1
    30   16   32 1
    31   17   18 1
    32   17   33 1
    33   17   34 1
    34   18   19 1
    35   18   35 1
    36   18   36 1
    37   19   37 1
    38   19   38 1
    39   20   21 2
    40   20   22 1
    41   22   39 1
    42   22   40 1
@<TRIPOS>MOLECULE
ZINC06817697
   38    40     0     0     0
SMALL
USER_CHARGES
4-(4-chlorophenyl)-2-oxo-6-phenyl-3,4-dihydro-1H-pyridine-3-carboxamide
@<TRIPOS>ATOM
      1 C1          2.6459   -0.9198    6.2135 C.ar      1 <0>        -0.1122
      2 C2          2.2175    0.3940    6.1495 C.ar      1 <0>        -0.1135
      3 C3          2.0965    1.0244    4.9280 C.ar      1 <0>        -0.1126
      4 C4          2.4074    0.3345    3.7567 C.ar      1 <0>        -0.0525
      5 C5          2.8341   -0.9912    3.8273 C.ar      1 <0>        -0.0985
      6 C6          2.9562   -1.6093    5.0550 C.ar      1 <0>        -0.1130
      7 C7          2.2791    1.0052    2.4425 C.2       1 <0>         0.1381
      8 C8          2.5788    0.3378    1.3309 C.2       1 <0>        -0.1630
      9 C9          2.4565    1.0018   -0.0157 C.3       1 <0>         0.0064
     10 H1          2.2878    0.2437   -0.7805 H         1 <0>         0.1188
     11 C10         1.2803    1.9798    0.0005 C.3       1 <0>        -0.1289
     12 H2          1.3212    2.6120   -0.8865 H         1 <0>         0.1424
     13 C11         1.3604    2.8402    1.2348 C.2       1 <0>         0.5351
     14 O1          0.9870    3.9935    1.1941 O.2       1 <0>        -0.5091
     15 N1          1.8454    2.3309    2.3832 N.am      1 <0>        -0.6604
     16 C12        -0.0144    1.2086    0.0087 C.2       1 <0>         0.5317
     17 O2          0.0021   -0.0041    0.0020 O.2       1 <0>        -0.5174
     18 N2         -1.1906    1.8666    0.0178 N.am      1 <0>        -0.8485
     19 C13         3.7276    1.7504   -0.3235 C.ar      1 <0>        -0.0792
     20 C14         4.1470    2.7713    0.5090 C.ar      1 <0>        -0.1066
     21 C15         5.3157    3.4545    0.2303 C.ar      1 <0>        -0.1047
     22 C16         6.0600    3.1241   -0.8882 C.ar      1 <0>        -0.0320
     23 C17         5.6368    2.1061   -1.7240 C.ar      1 <0>        -0.1069
     24 C18         4.4709    1.4198   -1.4412 C.ar      1 <0>        -0.0933
     25 Cl1         7.5246    3.9861   -1.2424 Cl        1 <0>        -0.0667
     26 H3          2.7388   -1.4091    7.1718 H         1 <0>         0.1261
     27 H4          1.9771    0.9273    7.0574 H         1 <0>         0.1270
     28 H5          1.7619    2.0502    4.8793 H         1 <0>         0.1194
     29 H6          3.0723   -1.5319    2.9232 H         1 <0>         0.1315
     30 H7          3.2905   -2.6347    5.1113 H         1 <0>         0.1291
     31 H8          2.9115   -0.6877    1.3945 H         1 <0>         0.1455
     32 H9          1.8942    2.8893    3.1749 H         1 <0>         0.4130
     33 H10        -2.0240    1.3702    0.0191 H         1 <0>         0.4083
     34 H11        -1.2037    2.8365    0.0232 H         1 <0>         0.4075
     35 H12         3.5637    3.0321    1.3797 H         1 <0>         0.1305
     36 H13         5.6456    4.2492    0.8832 H         1 <0>         0.1339
     37 H14         6.2175    1.8474   -2.5971 H         1 <0>         0.1372
     38 H15         4.1406    0.6248   -2.0934 H         1 <0>         0.1375
@<TRIPOS>BOND
     1    1    6 ar
     2    1    2 ar
     3    1   26 1
     4    2    3 ar
     5    2   27 1
     6    3    4 ar
     7    3   28 1
     8    4    5 ar
     9    4    7 1
    10    5    6 ar
    11    5   29 1
    12    6   30 1
    13    7   15 1
    14    7    8 2
    15    8    9 1
    16    8   31 1
    17    9   10 1
    18    9   11 1
    19    9   19 1
    20   11   12 1
    21   11   13 1
    22   11   16 1
    23   13   14 2
    24   13   15 am
    25   15   32 1
    26   16   17 2
    27   16   18 am
    28   18   33 1
    29   18   34 1
    30   19   24 ar
    31   19   20 ar
    32   20   21 ar
    33   20   35 1
    34   21   22 ar
    35   21   36 1
    36   22   23 ar
    37   22   25 1
    38   23   24 ar
    39   23   37 1
    40   24   38 1
@<TRIPOS>MOLECULE
ZINC37036854
   34    35     0     0     0
SMALL
USER_CHARGES

@<TRIPOS>ATOM
      1 C1         -0.0410    1.5032    0.0100 C.3       1 <0>        -0.0850
      2 C2         -0.0094   -0.0034    0.0018 C.2       1 <0>         0.1301
      3 C3         -0.0021   -0.6813   -1.1780 C.2       1 <0>        -0.2486
      4 S1          0.0368   -2.3694   -0.5894 S.3       1 <0>        -0.0011
      5 C4          0.0391   -1.9942    1.1584 C.2       1 <0>         0.3852
      6 N1          0.0168   -0.6741    1.1409 N.2       1 <0>        -0.5638
      7 N2          0.0636   -2.8600    2.2447 N.pl3     1 <0>        -0.7953
      8 S2         -0.0251   -0.0660   -2.8289 S.3       1 <0>        -0.0048
      9 C5          0.0005   -1.5616   -3.8551 C.3       1 <0>        -0.1078
     10 C6         -0.0168   -1.1664   -5.3331 C.3       1 <0>        -0.1230
     11 C7          0.0045   -2.4089   -6.1856 C.2       1 <0>         0.5202
     12 O1          0.0310   -3.5029   -5.6625 O.2       1 <0>        -0.5112
     13 N3         -0.0058   -2.3045   -7.5292 N.am      1 <0>        -0.6720
     14 C8          0.1116   -3.4522   -8.3211 C.ar      1 <0>         0.1542
     15 C9          0.8060   -3.4003   -9.5230 C.ar      1 <0>        -0.1395
     16 C10         0.9208   -4.5344  -10.3025 C.ar      1 <0>        -0.0874
     17 C11         0.3450   -5.7215   -9.8882 C.ar      1 <0>        -0.1242
     18 C12        -0.3475   -5.7770   -8.6915 C.ar      1 <0>        -0.0171
     19 C13        -0.4609   -4.6462   -7.9042 C.ar      1 <0>        -0.1146
     20 Cl1        -1.0693   -7.2692   -8.1755 Cl        1 <0>        -0.0626
     21 H1          0.9787    1.8881    0.0015 H         1 <0>         0.0784
     22 H2         -0.5715    1.8603   -0.8727 H         1 <0>         0.0761
     23 H3         -0.5532    1.8510    0.9072 H         1 <0>         0.0770
     24 H4          0.0832   -3.8190    2.1002 H         1 <0>         0.4218
     25 H5          0.0611   -2.5055    3.1476 H         1 <0>         0.4188
     26 H6          0.9042   -2.1328   -3.6423 H         1 <0>         0.0986
     27 H7         -0.8753   -2.1707   -3.6316 H         1 <0>         0.0985
     28 H8         -0.9204   -0.5952   -5.5459 H         1 <0>         0.1122
     29 H9          0.8591   -0.5573   -5.5566 H         1 <0>         0.1125
     30 H10        -0.0946   -1.4338   -7.9474 H         1 <0>         0.4163
     31 H11         1.2555   -2.4735   -9.8478 H         1 <0>         0.1337
     32 H12         1.4608   -4.4941  -11.2370 H         1 <0>         0.1384
     33 H13         0.4357   -6.6068  -10.5001 H         1 <0>         0.1359
     34 H14        -0.9976   -4.6907   -6.9681 H         1 <0>         0.1501
@<TRIPOS>BOND
     1    1    2 1
     2    1   21 1
     3    1   22 1
     4    1   23 1
     5    2    6 1
     6    2    3 2
     7    3    4 1
     8    3    8 1
     9    4    5 1
    10    5    6 2
    11    5    7 1
    12    7   24 1
    13    7   25 1
    14    8    9 1
    15    9   10 1
    16    9   26 1
    17    9   27 1
    18   10   11 1
    19   10   28 1
    20   10   29 1
    21   11   12 2
    22   11   13 am
    23   13   14 1
    24   13   30 1
    25   14   19 ar
    26   14   15 ar
    27   15   16 ar
    28   15   31 1
    29   16   17 ar
    30   16   32 1
    31   17   18 ar
    32   17   33 1
    33   18   19 ar
    34   18   20 1
    35   19   34 1
@<TRIPOS>MOLECULE
ZINC40323730
   35    36     0     0     0
SMALL
USER_CHARGES

@<TRIPOS>ATOM
      1 C1          0.2263    1.2779   -0.2113 C.3       1 <0>        -0.1694
      2 C2          0.2038   -0.2383   -0.0075 C.3       1 <0>         0.1964
      3 H1         -0.8276   -0.5908   -0.0164 H         1 <0>         0.0981
      4 C3          0.9725   -0.9059   -1.1185 C.ar      1 <0>        -0.0778
      5 C4          2.3532   -0.9597   -1.0685 C.ar      1 <0>        -0.1076
      6 C5          3.0589   -1.5719   -2.0871 C.ar      1 <0>        -0.1013
      7 C6          2.3846   -2.1303   -3.1569 C.ar      1 <0>        -0.1088
      8 C7          1.0033   -2.0768   -3.2075 C.ar      1 <0>        -0.0299
      9 C8          0.2970   -1.4692   -2.1844 C.ar      1 <0>        -0.1013
     10 Cl1         0.1558   -2.7780   -4.5506 Cl        1 <0>        -0.0642
     11 N1          0.8211   -0.5672    1.2797 N.pl3     1 <0>        -1.1163
     12 S1         -0.1262   -0.7891    2.6197 S.o2      1 <0>         2.6962
     13 O1          0.7510   -1.1245    3.6862 O.2       1 <0>        -0.9562
     14 O2         -1.0099    0.3220    2.6809 O.2       1 <0>        -0.9490
     15 C9         -1.1242   -2.2106    2.3226 C.ar      1 <0>        -0.7690
     16 C10        -2.4970   -2.0848    2.2347 C.ar      1 <0>         0.0506
     17 C11        -3.2816   -3.1986    2.0012 C.ar      1 <0>        -0.2280
     18 C12        -2.6940   -4.4447    1.8551 C.ar      1 <0>         0.2038
     19 C13        -1.3201   -4.5765    1.9426 C.ar      1 <0>        -0.2518
     20 C14        -0.5303   -3.4571    2.1711 C.ar      1 <0>         0.3434
     21 N2          0.8580   -3.5854    2.2539 N.pl3     1 <0>        -0.8574
     22 F1         -3.4635   -5.5316    1.6274 F         1 <0>        -0.1271
     23 H2          1.2577    1.6305   -0.2023 H         1 <0>         0.0662
     24 H3         -0.2330    1.5227   -1.1690 H         1 <0>         0.0731
     25 H4         -0.3297    1.7608    0.5923 H         1 <0>         0.0797
     26 H5          2.8804   -0.5229   -0.2332 H         1 <0>         0.1288
     27 H6          4.1373   -1.6136   -2.0474 H         1 <0>         0.1350
     28 H7          2.9362   -2.6080   -3.9531 H         1 <0>         0.1349
     29 H8         -0.7817   -1.4310   -2.2212 H         1 <0>         0.1361
     30 H9          1.7848   -0.6551    1.3470 H         1 <0>         0.4166
     31 H10        -2.9580   -1.1148    2.3489 H         1 <0>         0.1544
     32 H11        -4.3546   -3.0973    1.9329 H         1 <0>         0.1449
     33 H12        -0.8617   -5.5479    1.8295 H         1 <0>         0.1437
     34 H13         1.4142   -2.7948    2.3351 H         1 <0>         0.4005
     35 H14         1.2660   -4.4651    2.2303 H         1 <0>         0.4127
@<TRIPOS>BOND
     1    1    2 1
     2    1   23 1
     3    1   24 1
     4    1   25 1
     5    2    3 1
     6    2    4 1
     7    2   11 1
     8    4    9 ar
     9    4    5 ar
    10    5    6 ar
    11    5   26 1
    12    6    7 ar
    13    6   27 1
    14    7    8 ar
    15    7   28 1
    16    8    9 ar
    17    8   10 1
    18    9   29 1
    19   11   12 1
    20   11   30 1
    21   12   13 2
    22   12   14 2
    23   12   15 1
    24   15   20 ar
    25   15   16 ar
    26   16   17 ar
    27   16   31 1
    28   17   18 ar
    29   17   32 1
    30   18   19 ar
    31   18   22 1
    32   19   20 ar
    33   19   33 1
    34   20   21 1
    35   21   34 1
    36   21   35 1
@<TRIPOS>MOLECULE
ZINC49126997
   35    36     0     0     0
SMALL
USER_CHARGES

@<TRIPOS>ATOM
      1 C1         -0.0184    1.5028    0.0103 C.3       1 <0>        -0.1196
      2 C2          0.0021   -0.0041    0.0020 C.ar      1 <0>        -0.0534
      3 C3          0.0058   -0.6873   -1.1984 C.ar      1 <0>        -0.1448
      4 C4          0.0251   -2.0761   -1.2051 C.ar      1 <0>         0.2047
      5 C5          0.0406   -2.7733   -0.0035 C.ar      1 <0>        -0.1035
      6 C6          0.0368   -2.0840    1.1929 C.ar      1 <0>        -0.6226
      7 C7          0.0229   -0.7010    1.1960 C.ar      1 <0>        -0.0861
      8 S1          0.0559   -2.9672    2.7175 S.o2      1 <0>         2.6924
      9 O1         -0.5022   -2.1008    3.6958 O.2       1 <0>        -0.9471
     10 O2         -0.4787   -4.2557    2.4471 O.2       1 <0>        -0.9529
     11 N1          1.6430   -3.1912    3.1337 N.pl3     1 <0>        -1.1134
     12 C8          2.4872   -2.0365    3.4505 C.3       1 <0>         0.2401
     13 H1          2.0897   -1.1495    2.9570 H         1 <0>         0.1091
     14 C9          2.5011   -1.8148    4.9642 C.3       1 <0>        -0.1725
     15 C10         3.8914   -2.2932    2.9674 C.2       1 <0>        -0.1480
     16 C11         4.7606   -1.4372    2.3777 C.2       1 <0>        -0.1386
     17 C12         6.0125   -1.8975    2.0133 C.2       1 <0>        -0.1357
     18 C13         6.3329   -3.1929    2.2575 C.2       1 <0>        -0.1199
     19 S2          4.8436   -3.8020    3.0310 S.3       1 <0>         0.1032
     20 Cl1         7.8101   -4.0374    1.9133 Cl        1 <0>         0.0198
     21 N2          0.0284   -2.7702   -2.4172 N.pl3     1 <0>        -0.8756
     22 H2          1.0042    1.8801    0.0026 H         1 <0>         0.0757
     23 H3         -0.5455    1.8639   -0.8728 H         1 <0>         0.0698
     24 H4         -0.5286    1.8543    0.9071 H         1 <0>         0.0733
     25 H5         -0.0067   -0.1423   -2.1307 H         1 <0>         0.1285
     26 H6          0.0553   -3.8532   -0.0052 H         1 <0>         0.1373
     27 H7          0.0244   -0.1642    2.1332 H         1 <0>         0.1378
     28 H8          2.0137   -4.0869    3.1679 H         1 <0>         0.4198
     29 H9          1.4854   -1.6291    5.3136 H         1 <0>         0.0850
     30 H10         2.8985   -2.7017    5.4577 H         1 <0>         0.0680
     31 H11         3.1291   -0.9556    5.1999 H         1 <0>         0.0765
     32 H12         4.4796   -0.4106    2.1945 H         1 <0>         0.1448
     33 H13         6.7241   -1.2362    1.5414 H         1 <0>         0.1445
     34 H14         0.0172   -2.2823   -3.2555 H         1 <0>         0.4013
     35 H15         0.0419   -3.7401   -2.4206 H         1 <0>         0.4022
@<TRIPOS>BOND
     1    1    2 1
     2    1   22 1
     3    1   23 1
     4    1   24 1
     5    2    7 ar
     6    2    3 ar
     7    3    4 ar
     8    3   25 1
     9    4    5 ar
    10    4   21 1
    11    5    6 ar
    12    5   26 1
    13    6    7 ar
    14    6    8 1
    15    7   27 1
    16    8    9 2
    17    8   10 2
    18    8   11 1
    19   11   12 1
    20   11   28 1
    21   12   13 1
    22   12   14 1
    23   12   15 1
    24   14   29 1
    25   14   30 1
    26   14   31 1
    27   15   19 1
    28   15   16 2
    29   16   17 1
    30   16   32 1
    31   17   18 2
    32   17   33 1
    33   18   19 1
    34   18   20 1
    35   21   34 1
    36   21   35 1
@<TRIPOS>MOLECULE
ZINC61360498
   32    33     0     0     0
SMALL
USER_CHARGES

@<TRIPOS>ATOM
      1 C1         -1.0677    1.7924   -0.5498 C.3       1 <0>        -0.1716
      2 C2         -0.9021    0.2823   -0.3675 C.3       1 <0>         0.2070
      3 H1         -0.1783   -0.0937   -1.0905 H         1 <0>         0.0845
      4 C3         -0.4130   -0.0045    1.0287 C.2       1 <0>        -0.1288
      5 C4          0.9250   -0.2588    1.2648 C.2       1 <0>        -0.1540
      6 C5          1.3320   -0.5132    2.5325 C.2       1 <0>        -0.1660
      7 S1         -0.1996   -0.3968    3.4425 S.3       1 <0>         0.0516
      8 C6         -1.2776   -0.0114    2.0726 C.2       1 <0>        -0.1646
      9 N1         -2.1920   -0.3794   -0.5787 N.pl3     1 <0>        -1.1088
     10 S2         -2.5707   -0.9996   -2.0667 S.o2      1 <0>         2.6937
     11 O1         -3.8570   -1.5911   -1.9448 O.2       1 <0>        -0.9344
     12 O2         -2.2878    0.0198   -3.0155 O.2       1 <0>        -0.9523
     13 C7         -1.4407   -2.3131   -2.3867 C.ar      1 <0>        -0.7525
     14 C8         -0.2391   -2.0543   -3.0341 C.ar      1 <0>         0.3315
     15 C9          0.6494   -3.0918   -3.2842 C.ar      1 <0>        -0.1990
     16 C10         0.3362   -4.3789   -2.8886 C.ar      1 <0>         0.0714
     17 C11        -0.8613   -4.6338   -2.2439 C.ar      1 <0>        -0.1771
     18 C12        -1.7463   -3.6008   -1.9887 C.ar      1 <0>         0.1071
     19 Cl1        -3.2444   -3.9239   -1.1732 Cl        1 <0>        -0.0116
     20 Cl2         1.4461   -5.6766   -3.2013 Cl        1 <0>        -0.0399
     21 N2          0.0745   -0.7530   -3.4331 N.pl3     1 <0>        -0.8588
     22 H2         -0.1080    2.2847   -0.3927 H         1 <0>         0.0734
     23 H3         -1.4215    1.9998   -1.5597 H         1 <0>         0.0762
     24 H4         -1.7916    2.1684    0.1732 H         1 <0>         0.0695
     25 H5          1.6354   -0.2553    0.4514 H         1 <0>         0.1348
     26 H6          2.3250   -0.7304    2.8973 H         1 <0>         0.1880
     27 H7         -2.3426    0.1684    2.0749 H         1 <0>         0.1859
     28 H8         -2.8243   -0.4543    0.1532 H         1 <0>         0.4209
     29 H9          1.5841   -2.8935   -3.7877 H         1 <0>         0.1491
     30 H10        -1.1039   -5.6401   -1.9357 H         1 <0>         0.1517
     31 H11        -0.3566    0.0029   -3.0045 H         1 <0>         0.4114
     32 H12         0.7234   -0.6052   -4.1388 H         1 <0>         0.4117
@<TRIPOS>BOND
     1    1    2 1
     2    1   22 1
     3    1   23 1
     4    1   24 1
     5    2    3 1
     6    2    4 1
     7    2    9 1
     8    4    8 2
     9    4    5 1
    10    5    6 2
    11    5   25 1
    12    6    7 1
    13    6   26 1
    14    7    8 1
    15    8   27 1
    16    9   10 1
    17    9   28 1
    18   10   11 2
    19   10   12 2
    20   10   13 1
    21   13   18 ar
    22   13   14 ar
    23   14   15 ar
    24   14   21 1
    25   15   16 ar
    26   15   29 1
    27   16   17 ar
    28   16   20 1
    29   17   18 ar
    30   17   30 1
    31   18   19 1
    32   21   31 1
    33   21   32 1
@<TRIPOS>MOLECULE
ZINC21039217
   44    45     0     0     0
SMALL
USER_CHARGES
2-[(1S)-1-[[(2S)-2-dimethylamino-2-(2-thienyl)ethyl]amino]ethyl]benzene-1,4-diol
@<TRIPOS>ATOM
      1 C1          2.0114    1.6246    0.9243 C.3       1 <0>        -0.1368
      2 C2          1.5728    0.3119    0.2722 C.3       1 <0>         0.1400
      3 H1          1.9333    0.2479   -0.7651 H         1 <0>         0.0667
      4 C3          2.1091   -0.8490    1.0695 C.ar      1 <0>        -0.1029
      5 C4          1.2895   -1.5099    1.9640 C.ar      1 <0>        -0.1220
      6 C5          1.7814   -2.5818    2.6935 C.ar      1 <0>         0.1202
      7 C6          3.0996   -2.9831    2.5336 C.ar      1 <0>        -0.1678
      8 C7          3.9205   -2.3187    1.6436 C.ar      1 <0>        -0.1663
      9 C8          3.4269   -1.2501    0.9096 C.ar      1 <0>         0.1269
     10 O1          4.2350   -0.5962    0.0330 O.3       1 <0>        -0.5118
     11 O2          0.9731   -3.2360    3.5698 O.3       1 <0>        -0.5144
     12 N1          0.1055    0.2475    0.2398 N.3       1 <0>        -0.6695
     13 C9         -0.4259    0.9392   -0.9422 C.3       1 <0>         0.0229
     14 C10        -1.9533    0.8509   -0.9410 C.3       1 <0>         0.1456
     15 H2         -2.3774    1.3769   -0.0730 H         1 <0>         0.1605
     16 C11        -2.4922    1.4521   -2.2135 C.2       1 <0>        -0.2508
     17 C12        -3.2754    2.5464   -2.3757 C.2       1 <0>        -0.0737
     18 C13        -3.6524    2.9176   -3.6527 C.2       1 <0>        -0.1741
     19 C14        -3.2277    2.1764   -4.7051 C.2       1 <0>        -0.1226
     20 S1         -2.2583    0.9123   -3.8991 S.3       1 <0>         0.0604
     21 N2         -2.3623   -0.5573   -0.8532 N.4       1 <0>        -0.4027
     22 C15        -3.8256   -0.6832   -0.8815 C.3       1 <0>        -0.0467
     23 C16        -1.7447   -1.3526   -1.9228 C.3       1 <0>        -0.0663
     24 H3          1.6199    2.4719    0.3422 H         1 <0>         0.0577
     25 H4          3.1101    1.6728    0.9485 H         1 <0>         0.0717
     26 H5          1.6196    1.6728    1.9510 H         1 <0>         0.0683
     27 H6          0.2646   -1.1945    2.0920 H         1 <0>         0.1383
     28 H7          3.4838   -3.8153    3.1047 H         1 <0>         0.1318
     29 H8          4.9469   -2.6309    1.5193 H         1 <0>         0.1330
     30 H9          5.2803   -0.9143   -0.0939 H         1 <0>         0.4393
     31 H10         1.3633   -4.0862    4.1485 H         1 <0>         0.4391
     32 H11        -0.2147   -0.8043    0.2065 H         1 <0>         0.3198
     33 H12        -0.1197    1.9954   -0.9175 H         1 <0>         0.1255
     34 H13        -0.0319    0.4644   -1.8529 H         1 <0>         0.0638
     35 H14        -3.6004    3.1195   -1.5199 H         1 <0>         0.1455
     36 H15        -4.2763    3.7851   -3.8096 H         1 <0>         0.1502
     37 H16        -3.4219    2.3165   -5.7582 H         1 <0>         0.1984
     38 H17        -4.1036   -1.7454   -0.8145 H         1 <0>         0.1279
     39 H18        -4.2118   -0.2617   -1.8213 H         1 <0>         0.1186
     40 H19        -4.2571   -0.1368   -0.0299 H         1 <0>         0.1271
     41 H20        -2.0672   -2.4004   -1.8335 H         1 <0>         0.1357
     42 H21        -0.6496   -1.2973   -1.8352 H         1 <0>         0.1214
     43 H22        -2.0548   -0.9556   -2.9006 H         1 <0>         0.1218
     44 H23        -2.0076   -0.9529    0.1100 H         1 <0>         0.4507
@<TRIPOS>BOND
     1    1    2 1
     2    1   24 1
     3    1   25 1
     4    1   26 1
     5    2    3 1
     6    2    4 1
     7    2   12 1
     8    4    9 ar
     9    4    5 ar
    10    5    6 ar
    11    5   27 1
    12    6    7 ar
    13    6   11 1
    14    7    8 ar
    15    7   28 1
    16    8    9 ar
    17    8   29 1
    18    9   10 1
    19   10   30 1
    20   11   31 1
    21   12   13 1
    22   12   32 1
    23   13   14 1
    24   13   33 1
    25   13   34 1
    26   14   15 1
    27   14   16 1
    28   14   21 1
    29   16   20 1
    30   16   17 2
    31   17   18 1
    32   17   35 1
    33   18   19 2
    34   18   36 1
    35   19   20 1
    36   19   37 1
    37   21   22 1
    38   21   23 1
    39   21   44 1
    40   22   38 1
    41   22   39 1
    42   22   40 1
    43   23   41 1
    44   23   42 1
    45   23   43 1
@<TRIPOS>MOLECULE
ZINC37969842
   42    43     0     0     0
SMALL
USER_CHARGES

@<TRIPOS>ATOM
      1 C1         -0.8649    0.8077   -0.4230 C.ar      1 <0>        -0.1192
      2 C2          0.0859    1.7835   -0.1863 C.ar      1 <0>        -0.0476
      3 C3          1.3912    1.4254    0.0885 C.ar      1 <0>        -0.1744
      4 C4          1.7481    0.0851    0.1275 C.ar      1 <0>         0.1430
      5 C5          0.7925   -0.8919   -0.1099 C.ar      1 <0>        -0.1568
      6 C6         -0.5118   -0.5284   -0.3848 C.ar      1 <0>        -0.0876
      7 C7          1.1768   -2.3485   -0.0689 C.3       1 <0>         0.0652
      8 H1          2.1890   -2.4682   -0.4551 H         1 <0>         0.1690
      9 C8          1.1200   -2.8432    1.3535 C.2       1 <0>         0.5163
     10 O1          0.1034   -3.3492    1.7794 O.2       1 <0>        -0.5195
     11 N1          2.1989   -2.7232    2.1522 N.am      1 <0>        -0.8190
     12 N2          0.2425   -3.1248   -0.8950 N.4       1 <0>        -0.4928
     13 C9          0.3986   -2.7399   -2.3040 C.3       1 <0>         0.0184
     14 C10         1.7856   -3.1579   -2.7963 C.3       1 <0>        -0.1399
     15 C11         1.9482   -2.7570   -4.2639 C.3       1 <0>        -0.1159
     16 C12         0.8769   -3.4543   -5.1047 C.3       1 <0>        -0.1319
     17 C13        -0.5101   -3.0362   -4.6125 C.3       1 <0>        -0.1163
     18 C14        -0.6726   -3.4372   -3.1449 C.3       1 <0>        -0.1391
     19 O2          3.0319   -0.2699    0.3972 O.3       1 <0>        -0.3335
     20 C15         3.9624    0.7892    0.6309 C.3       1 <0>         0.4145
     21 F1          4.0290    1.6096   -0.5003 F         1 <0>        -0.1882
     22 F2          3.5423    1.5448    1.7309 F         1 <0>        -0.1880
     23 H2         -1.8859    1.0896   -0.6336 H         1 <0>         0.1463
     24 H3         -0.1924    2.8266   -0.2167 H         1 <0>         0.1474
     25 H4          2.1336    2.1879    0.2726 H         1 <0>         0.1500
     26 H5         -1.2562   -1.2887   -0.5701 H         1 <0>         0.1302
     27 H6          3.0120   -2.3185    1.8116 H         1 <0>         0.4127
     28 H7          2.1624   -3.0416    3.0678 H         1 <0>         0.4242
     29 H8          0.4398   -4.1089   -0.7913 H         1 <0>         0.4333
     30 H9          0.2894   -1.6596   -2.3998 H         1 <0>         0.1445
     31 H10         2.5488   -2.6611   -2.1972 H         1 <0>         0.0845
     32 H11         1.8947   -4.2382   -2.7006 H         1 <0>         0.0900
     33 H12         1.8390   -1.6767   -4.3596 H         1 <0>         0.0746
     34 H13         2.9363   -3.0548   -4.6146 H         1 <0>         0.0859
     35 H14         0.9927   -3.1687   -6.1502 H         1 <0>         0.0804
     36 H15         0.9861   -4.5346   -5.0090 H         1 <0>         0.0715
     37 H16        -0.6192   -1.9559   -4.7082 H         1 <0>         0.0751
     38 H17        -1.2732   -3.5330   -5.2115 H         1 <0>         0.0871
     39 H18        -0.5635   -4.5175   -3.0492 H         1 <0>         0.0901
     40 H19        -1.6608   -3.1393   -2.7942 H         1 <0>         0.0891
     41 H20         4.9476    0.3692    0.8336 H         1 <0>         0.1941
     42 H21        -0.7037   -2.9384   -0.5982 H         1 <0>         0.4324
@<TRIPOS>BOND
     1    1    6 ar
     2    1    2 ar
     3    1   23 1
     4    2    3 ar
     5    2   24 1
     6    3    4 ar
     7    3   25 1
     8    4    5 ar
     9    4   19 1
    10    5    6 ar
    11    5    7 1
    12    6   26 1
    13    7    8 1
    14    7    9 1
    15    7   12 1
    16    9   10 2
    17    9   11 am
    18   11   27 1
    19   11   28 1
    20   12   13 1
    21   12   29 1
    22   12   42 1
    23   13   18 1
    24   13   14 1
    25   13   30 1
    26   14   15 1
    27   14   31 1
    28   14   32 1
    29   15   16 1
    30   15   33 1
    31   15   34 1
    32   16   17 1
    33   16   35 1
    34   16   36 1
    35   17   18 1
    36   17   37 1
    37   17   38 1
    38   18   39 1
    39   18   40 1
    40   19   20 1
    41   20   21 1
    42   20   22 1
    43   20   41 1
@<TRIPOS>MOLECULE
ZINC45072192
   48    49     0     0     0
SMALL
USER_CHARGES

@<TRIPOS>ATOM
      1 C1         -5.9962   -6.1826    0.4757 C.3       1 <0>        -0.1535
      2 C2         -4.5143   -5.8214    0.3563 C.3       1 <0>        -0.1369
      3 C3         -3.7652   -6.3262    1.5911 C.3       1 <0>         0.1138
      4 N1         -2.3462   -5.9804    1.4768 N.am      1 <0>        -0.7206
      5 C4         -1.4871   -6.3272    2.4556 C.2       1 <0>         0.5179
      6 O1         -1.8887   -6.9257    3.4311 O.2       1 <0>        -0.5324
      7 C5         -0.0274   -5.9715    2.3380 C.3       1 <0>        -0.1739
      8 C6          0.7217   -6.4763    3.5729 C.3       1 <0>         0.0045
      9 N2          2.1446   -6.1295    3.4582 N.4       1 <0>        -0.5051
     10 C7          2.8415   -6.5057    4.6955 C.3       1 <0>         0.0891
     11 H1          2.3324   -6.0799    5.5601 H         1 <0>         0.1502
     12 C8          2.9172   -8.0422    4.8216 C.3       1 <0>        -0.1339
     13 C9          4.2864   -8.2514    5.5026 C.3       1 <0>        -0.0522
     14 H2          4.7558   -9.1642    5.1357 H         1 <0>         0.1036
     15 C10         5.1113   -7.0434    5.1130 C.ar      1 <0>        -0.0457
     16 C11         4.2805   -6.0385    4.6506 C.ar      1 <0>        -0.1853
     17 C12         4.8218   -4.8280    4.2358 C.ar      1 <0>         0.1249
     18 C13         6.1925   -4.6257    4.2862 C.ar      1 <0>        -0.1334
     19 C14         7.0196   -5.6301    4.7497 C.ar      1 <0>        -0.0718
     20 C15         6.4802   -6.8388    5.1608 C.ar      1 <0>        -0.0663
     21 C16         7.3846   -7.9329    5.6668 C.3       1 <0>        -0.1272
     22 O2          4.0066   -3.8410    3.7797 O.3       1 <0>        -0.5114
     23 C17         4.1193   -8.3151    7.0221 C.3       1 <0>        -0.1497
     24 H3         -6.4128   -5.7170    1.3689 H         1 <0>         0.0602
     25 H4         -6.5299   -5.8229   -0.4041 H         1 <0>         0.0655
     26 H5         -6.1017   -7.2651    0.5473 H         1 <0>         0.0602
     27 H6         -4.0976   -6.2869   -0.5369 H         1 <0>         0.0707
     28 H7         -4.4087   -4.7388    0.2847 H         1 <0>         0.0707
     29 H8         -4.1818   -5.8607    2.4844 H         1 <0>         0.0745
     30 H9         -3.8707   -7.4087    1.6627 H         1 <0>         0.0745
     31 H10        -2.0250   -5.5018    0.6967 H         1 <0>         0.4055
     32 H11         0.3892   -6.4370    1.4448 H         1 <0>         0.1182
     33 H12         0.0781   -4.8889    2.2664 H         1 <0>         0.1184
     34 H13         0.3051   -6.0108    4.4661 H         1 <0>         0.1407
     35 H14         0.6162   -7.5589    3.6445 H         1 <0>         0.1415
     36 H15         2.5502   -6.6264    2.6794 H         1 <0>         0.4264
     37 H16         2.1103   -8.4197    5.4497 H         1 <0>         0.1133
     38 H17         2.8973   -8.5131    3.8388 H         1 <0>         0.0966
     39 H18         6.6128   -3.6846    3.9633 H         1 <0>         0.1445
     40 H19         8.0876   -5.4747    4.7898 H         1 <0>         0.1430
     41 H20         7.6911   -8.5654    4.8337 H         1 <0>         0.0807
     42 H21         8.2662   -7.4902    6.1304 H         1 <0>         0.0771
     43 H22         6.8506   -8.5344    6.4024 H         1 <0>         0.0743
     44 H23         3.7551   -3.1954    4.4542 H         1 <0>         0.4048
     45 H24         3.4626   -9.1457    7.2809 H         1 <0>         0.0731
     46 H25         5.0932   -8.4629    7.4888 H         1 <0>         0.0707
     47 H26         3.6832   -7.3821    7.3791 H         1 <0>         0.0595
     48 H27         2.2376   -5.1361    3.3086 H         1 <0>         0.4309
@<TRIPOS>BOND
     1    1    2 1
     2    1   24 1
     3    1   25 1
     4    1   26 1
     5    2    3 1
     6    2   27 1
     7    2   28 1
     8    3    4 1
     9    3   29 1
    10    3   30 1
    11    4    5 am
    12    4   31 1
    13    5    6 2
    14    5    7 1
    15    7    8 1
    16    7   32 1
    17    7   33 1
    18    8    9 1
    19    8   34 1
    20    8   35 1
    21    9   10 1
    22    9   36 1
    23    9   48 1
    24   10   11 1
    25   10   16 1
    26   10   12 1
    27   12   13 1
    28   12   37 1
    29   12   38 1
    30   13   14 1
    31   13   15 1
    32   13   23 1
    33   15   20 ar
    34   15   16 ar
    35   16   17 ar
    36   17   18 ar
    37   17   22 1
    38   18   19 ar
    39   18   39 1
    40   19   20 ar
    41   19   40 1
    42   20   21 1
    43   21   41 1
    44   21   42 1
    45   21   43 1
    46   22   44 1
    47   23   45 1
    48   23   46 1
    49   23   47 1
@<TRIPOS>MOLECULE
ZINC51146368
   45    47     0     0     0
SMALL
USER_CHARGES

@<TRIPOS>ATOM
      1 C1         -0.0187    1.5258    0.0104 C.3       1 <0>        -0.1586
      2 C2          0.0021   -0.0041    0.0020 C.3       1 <0>        -0.1266
      3 C3         -1.4333   -0.5336    0.0129 C.3       1 <0>        -0.1174
      4 C4         -1.4126   -2.0635    0.0045 C.3       1 <0>        -0.1005
      5 C5         -0.8174   -2.5603   -1.3162 C.3       1 <0>        -0.1440
      6 C6         -0.8727   -4.0891   -1.3512 C.3       1 <0>        -0.0054
      7 N1         -2.2671   -4.5344   -1.2430 N.4       1 <0>        -0.3798
      8 C7         -2.8223   -4.1233    0.0521 C.3       1 <0>        -0.0064
      9 C8         -2.8420   -2.5958    0.1410 C.3       1 <0>        -0.1412
     10 C9         -2.3223   -5.9981   -1.3552 C.3       1 <0>         0.0808
     11 C10        -3.7608   -6.4471   -1.3677 C.ar      1 <0>         0.3174
     12 N2         -4.3613   -6.7232   -0.2238 N.ar      1 <0>        -0.5632
     13 C11        -5.6217   -7.1218   -0.1680 C.ar      1 <0>         0.4998
     14 C12        -6.3596   -7.2594   -1.3761 C.ar      1 <0>        -0.2217
     15 C13        -7.7364   -7.6737   -1.5815 C.2       1 <0>        -0.1318
     16 C14        -8.2241   -7.7296   -2.8297 C.2       1 <0>        -0.1441
     17 S1         -6.8452   -7.2207   -3.8388 S.3       1 <0>         0.1550
     18 C15        -5.6512   -6.9467   -2.5568 C.ar      1 <0>         0.1301
     19 N3         -4.3940   -6.5507   -2.5198 N.ar      1 <0>        -0.4976
     20 N4         -6.2142   -7.4016    1.0501 N.pl3     1 <0>        -0.5351
     21 N5         -5.4976   -7.2670    2.2052 N.3       1 <0>        -0.5948
     22 H1          1.0039    1.9031    0.0027 H         1 <0>         0.0592
     23 H2         -0.5459    1.8868   -0.8726 H         1 <0>         0.0555
     24 H3         -0.5289    1.8773    0.9072 H         1 <0>         0.0564
     25 H4          0.5123   -0.3556   -0.8948 H         1 <0>         0.0633
     26 H5          0.5293   -0.3651    0.8851 H         1 <0>         0.0646
     27 H6         -1.9435   -0.1821    0.9097 H         1 <0>         0.0727
     28 H7         -1.9605   -0.1726   -0.8702 H         1 <0>         0.0684
     29 H8         -0.8081   -2.4244    0.8367 H         1 <0>         0.0908
     30 H9         -1.3922   -2.1561   -2.1494 H         1 <0>         0.0887
     31 H10         0.2190   -2.2317   -1.3948 H         1 <0>         0.1163
     32 H11        -0.4495   -4.4462   -2.2900 H         1 <0>         0.1345
     33 H12        -0.2973   -4.4922   -0.5177 H         1 <0>         0.1325
     34 H13        -3.8384   -4.5055    0.1492 H         1 <0>         0.1251
     35 H14        -2.2054   -4.5256    0.8556 H         1 <0>         0.1340
     36 H15        -3.2528   -2.2925    1.1040 H         1 <0>         0.1103
     37 H16        -3.4589   -2.1923   -0.6619 H         1 <0>         0.0848
     38 H17        -1.8362   -6.3102   -2.2796 H         1 <0>         0.1568
     39 H18        -1.8088   -6.4473   -0.5051 H         1 <0>         0.1562
     40 H19        -8.3601   -7.9341   -0.7391 H         1 <0>         0.1440
     41 H20        -9.2160   -8.0150   -3.1477 H         1 <0>         0.2059
     42 H21        -7.1387   -7.6934    1.0841 H         1 <0>         0.4224
     43 H22        -5.1209   -6.3348    2.2905 H         1 <0>         0.3481
     44 H23        -6.0592   -7.5050    3.0090 H         1 <0>         0.3703
     45 H24        -2.8097   -4.1214   -1.9867 H         1 <0>         0.4245
@<TRIPOS>BOND
     1    1    2 1
     2    1   22 1
     3    1   23 1
     4    1   24 1
     5    2    3 1
     6    2   25 1
     7    2   26 1
     8    3    4 1
     9    3   27 1
    10    3   28 1
    11    4    9 1
    12    4    5 1
    13    4   29 1
    14    5    6 1
    15    5   30 1
    16    5   31 1
    17    6    7 1
    18    6   32 1
    19    6   33 1
    20    7    8 1
    21    7   10 1
    22    7   45 1
    23    8    9 1
    24    8   34 1
    25    8   35 1
    26    9   36 1
    27    9   37 1
    28   10   11 1
    29   10   38 1
    30   10   39 1
    31   11   19 ar
    32   11   12 ar
    33   12   13 ar
    34   13   14 ar
    35   13   20 1
    36   14   18 ar
    37   14   15 1
    38   15   16 2
    39   15   40 1
    40   16   17 1
    41   16   41 1
    42   17   18 1
    43   18   19 ar
    44   20   21 1
    45   20   42 1
    46   21   43 1
    47   21   44 1
@<TRIPOS>MOLECULE
ZINC62794761
   37    38     0     0     0
SMALL
USER_CHARGES

@<TRIPOS>ATOM
      1 C1          0.0077    1.3730    0.1864 C.3       1 <0>         0.0886
      2 N1          0.0026   -0.0895    0.1021 N.pl3     1 <0>        -0.6300
      3 C2          1.2687   -0.8260    0.0741 C.3       1 <0>         0.0866
      4 C3         -1.2093   -0.7817    0.0484 C.ar      1 <0>         0.2351
      5 C4         -1.2152   -2.1695   -0.0258 C.ar      1 <0>        -0.1859
      6 C5         -2.4138   -2.8540   -0.0784 C.ar      1 <0>        -0.0512
      7 C6         -3.6097   -2.1615   -0.0574 C.ar      1 <0>        -0.1962
      8 C7         -3.6101   -0.7755    0.0167 C.ar      1 <0>         0.1048
      9 C8         -2.4092   -0.0850    0.0749 C.ar      1 <0>        -0.1914
     10 O1         -4.7867   -0.0961    0.0373 O.3       1 <0>        -0.2241
     11 C9         -5.5814   -0.2312    1.1293 C.ar      1 <0>         0.2099
     12 C10        -5.1261   -0.9398    2.2347 C.ar      1 <0>        -0.1827
     13 C11        -5.9296   -1.0790    3.3447 C.ar      1 <0>        -0.0114
     14 C12        -7.2036   -0.5067    3.3592 C.ar      1 <0>        -0.1887
     15 C13        -7.6585    0.2053    2.2473 C.ar      1 <0>        -0.0133
     16 C14        -6.8472    0.3448    1.1416 C.ar      1 <0>        -0.0748
     17 Cl1        -7.4086    1.2346   -0.2393 Cl        1 <0>        -0.0108
     18 C15        -8.0683   -0.6546    4.5482 C.cat     1 <0>         0.6073
     19 N2         -9.2834   -0.1080    4.5604 N.pl3     1 <0>        -0.7633
     20 N3         -7.6329   -1.3346    5.6081 N.pl3     1 <0>        -0.7633
     21 H1          1.0366    1.7315    0.2188 H         1 <0>         0.0807
     22 H2         -0.4947    1.7891   -0.6868 H         1 <0>         0.0590
     23 H3         -0.5149    1.6867    1.0901 H         1 <0>         0.0566
     24 H4          1.5711   -1.0678    1.0930 H         1 <0>         0.0550
     25 H5          1.1410   -1.7468   -0.4952 H         1 <0>         0.0725
     26 H6          2.0362   -0.2115   -0.3965 H         1 <0>         0.0743
     27 H7         -0.2822   -2.7131   -0.0427 H         1 <0>         0.1343
     28 H8         -2.4164   -3.9324   -0.1364 H         1 <0>         0.1359
     29 H9         -4.5452   -2.6996   -0.0990 H         1 <0>         0.1286
     30 H10        -2.4076    0.9932    0.1371 H         1 <0>         0.1353
     31 H11        -4.1410   -1.3823    2.2233 H         1 <0>         0.1646
     32 H12        -5.5750   -1.6306    4.2029 H         1 <0>         0.1474
     33 H13        -8.6432    0.6488    2.2549 H         1 <0>         0.1542
     34 H14        -9.8510   -0.2051    5.3410 H         1 <0>         0.4344
     35 H15        -6.7483   -1.7325    5.5992 H         1 <0>         0.4436
     36 H16        -8.2006   -1.4317    6.3887 H         1 <0>         0.4344
     37 H17        -9.6003    0.3870    3.7888 H         1 <0>         0.4439
@<TRIPOS>BOND
     1    1    2 1
     2    1   21 1
     3    1   22 1
     4    1   23 1
     5    2    3 1
     6    2    4 1
     7    3   24 1
     8    3   25 1
     9    3   26 1
    10    4    9 ar
    11    4    5 ar
    12    5    6 ar
    13    5   27 1
    14    6    7 ar
    15    6   28 1
    16    7    8 ar
    17    7   29 1
    18    8    9 ar
    19    8   10 1
    20    9   30 1
    21   10   11 1
    22   11   16 ar
    23   11   12 ar
    24   12   13 ar
    25   12   31 1
    26   13   14 ar
    27   13   32 1
    28   14   15 ar
    29   14   18 1
    30   15   16 ar
    31   15   33 1
    32   16   17 1
    33   18   19 2
    34   18   20 1
    35   19   34 1
    36   19   37 1
    37   20   35 1
    38   20   36 1
@<TRIPOS>MOLECULE
ZINC20016318
   40    41     0     0     0
SMALL
USER_CHARGES
4-[[(1R,2R)-2-methylcyclohexyl]sulfamoyl]benzenecarbothioamide
@<TRIPOS>ATOM
      1 C1          0.0021   -0.0041    0.0020 C.3       1 <0>        -0.1521
      2 C2         -0.0187    1.5258    0.0104 C.3       1 <0>        -0.0867
      3 H1          1.0132    1.9066    0.0026 H         1 <0>         0.0784
      4 C3         -0.7348    2.0192    1.2692 C.3       1 <0>        -0.1168
      5 C4         -0.7556    3.5490    1.2776 C.3       1 <0>        -0.1237
      6 C5         -1.4956    4.0559    0.0381 C.3       1 <0>        -0.1179
      7 C6         -0.7794    3.5624   -1.2207 C.3       1 <0>        -0.1447
      8 C7         -0.7587    2.0326   -1.2291 C.3       1 <0>         0.1553
      9 H2         -1.7825    1.6315   -1.2601 H         1 <0>         0.0922
     10 N1         -0.0730    1.5601   -2.4344 N.pl3     1 <0>        -1.1152
     11 S1         -0.9482    1.1618   -3.7826 S.o2      1 <0>         2.6886
     12 O1         -0.0096    0.7717   -4.7756 O.2       1 <0>        -0.9526
     13 O2         -1.9970    0.3071   -3.3481 O.2       1 <0>        -0.9493
     14 C8         -1.7112    2.6398   -4.3639 C.ar      1 <0>        -0.6579
     15 C9         -2.9695    2.9906   -3.9075 C.ar      1 <0>        -0.0239
     16 C10        -3.5707    4.1488   -4.3547 C.ar      1 <0>        -0.1101
     17 C11        -2.9109    4.9625   -5.2782 C.ar      1 <0>        -0.0513
     18 C12        -1.6434    4.5996   -5.7385 C.ar      1 <0>        -0.0720
     19 C13        -1.0518    3.4413   -5.2789 C.ar      1 <0>        -0.0208
     20 C14        -3.5506    6.2003   -5.7659 C.2       1 <0>         0.3874
     21 S2         -3.3087    6.7092   -7.3825 S.2       1 <0>        -0.5492
     22 N2         -4.3251    6.9298   -4.9385 N.pl3     1 <0>        -0.7781
     23 H3          0.5341   -0.3684    0.8932 H         1 <0>         0.0568
     24 H4          0.5170   -0.3588   -0.9030 H         1 <0>         0.0605
     25 H5         -1.0299   -0.3849    0.0098 H         1 <0>         0.0582
     26 H6         -1.7668    1.6384    1.2770 H         1 <0>         0.0665
     27 H7         -0.2028    1.6548    2.1604 H         1 <0>         0.0694
     28 H8         -1.2705    3.9037    2.1826 H         1 <0>         0.0651
     29 H9          0.2764    3.9298    1.2698 H         1 <0>         0.0640
     30 H10        -2.5276    3.6752    0.0459 H         1 <0>         0.0646
     31 H11        -1.5105    5.1558    0.0442 H         1 <0>         0.0653
     32 H12        -1.3114    3.9268   -2.1119 H         1 <0>         0.0654
     33 H13         0.2526    3.9431   -1.2285 H         1 <0>         0.0736
     34 H14         1.0229    1.6244   -2.5047 H         1 <0>         0.4428
     35 H15        -3.4803    2.3584   -3.1964 H         1 <0>         0.1478
     36 H16        -4.5511    4.4236   -3.9945 H         1 <0>         0.1365
     37 H17        -1.1277    5.2241   -6.4530 H         1 <0>         0.1538
     38 H18        -0.0714    3.1596   -5.6338 H         1 <0>         0.1514
     39 H19        -4.8018    7.8521   -5.3019 H         1 <0>         0.4538
     40 H20        -4.4805    6.6028   -3.8998 H         1 <0>         0.4251
@<TRIPOS>BOND
     1    1    2 1
     2    1   23 1
     3    1   24 1
     4    1   25 1
     5    2    3 1
     6    2    8 1
     7    2    4 1
     8    4    5 1
     9    4   26 1
    10    4   27 1
    11    5    6 1
    12    5   28 1
    13    5   29 1
    14    6    7 1
    15    6   30 1
    16    6   31 1
    17    7    8 1
    18    7   32 1
    19    7   33 1
    20    8    9 1
    21    8   10 1
    22   10   11 1
    23   10   34 1
    24   11   12 2
    25   11   13 2
    26   11   14 1
    27   14   19 ar
    28   14   15 ar
    29   15   16 ar
    30   15   35 1
    31   16   17 ar
    32   16   36 1
    33   17   18 ar
    34   17   20 1
    35   18   19 ar
    36   18   37 1
    37   19   38 1
    38   20   21 2
    39   20   22 1
    40   22   39 1
    41   22   40 1
@<TRIPOS>MOLECULE
ZINC36814341
   32    33     0     0     0
SMALL
USER_CHARGES

@<TRIPOS>ATOM
      1 C1         -0.0166    1.3754    0.0096 C.ar      1 <0>        -0.1205
      2 C2          1.1704    2.0863    0.0021 C.ar      1 <0>        -0.0734
      3 C3          2.3822    1.4197   -0.0131 C.ar      1 <0>        -0.1016
      4 C4          2.4140    0.0400   -0.0213 C.ar      1 <0>        -0.0443
      5 C5          1.2210   -0.6821   -0.0138 C.ar      1 <0>        -0.0530
      6 C6          0.0021   -0.0041    0.0020 C.ar      1 <0>        -0.0807
      7 C7          1.2481   -2.1623   -0.0230 C.2       1 <0>         0.4108
      8 N1          2.3861   -2.7918   -0.0381 N.2       1 <0>        -0.4152
      9 O1          2.4120   -4.2076   -0.0469 O.3       1 <0>        -0.4209
     10 N2          0.0619   -2.8765   -0.0155 N.pl3     1 <0>        -0.8693
     11 C8          3.6705    2.2015   -0.0212 C.3       1 <0>         0.0988
     12 O2          4.0906    2.4414    1.3234 O.3       1 <0>        -0.2976
     13 C9          5.2440    3.1395    1.4943 C.ar      1 <0>         0.1601
     14 C10         5.9536    3.5891    0.3904 C.ar      1 <0>        -0.2003
     15 C11         7.1269    4.2992    0.5662 C.ar      1 <0>         0.0170
     16 C12         7.5937    4.5609    1.8421 C.ar      1 <0>        -0.1412
     17 C13         6.8876    4.1128    2.9445 C.ar      1 <0>         0.0154
     18 C14         5.7103    3.4082    2.7728 C.ar      1 <0>        -0.1402
     19 Cl1         7.4760    4.4422    4.5441 Cl        1 <0>        -0.0441
     20 Cl2         8.0154    4.8622   -0.8149 Cl        1 <0>        -0.0492
     21 H1         -0.9597    1.9015    0.0260 H         1 <0>         0.1359
     22 H2          1.1506    3.1661    0.0077 H         1 <0>         0.1318
     23 H3          3.3608   -0.4794   -0.0338 H         1 <0>         0.1411
     24 H4         -0.9251   -0.5578    0.0079 H         1 <0>         0.1293
     25 H5          3.3024   -4.5846   -0.0581 H         1 <0>         0.4023
     26 H6         -0.7869   -2.4070   -0.0042 H         1 <0>         0.3965
     27 H7          0.0796   -3.8463   -0.0215 H         1 <0>         0.4104
     28 H8          4.4379    1.6320   -0.5455 H         1 <0>         0.0795
     29 H9          3.5145    3.1536   -0.5284 H         1 <0>         0.0796
     30 H10         5.5900    3.3845   -0.6058 H         1 <0>         0.1461
     31 H11         8.5105    5.1153    1.9779 H         1 <0>         0.1472
     32 H12         5.1569    3.0627    3.6335 H         1 <0>         0.1495
@<TRIPOS>BOND
     1    1    6 ar
     2    1    2 ar
     3    1   21 1
     4    2    3 ar
     5    2   22 1
     6    3    4 ar
     7    3   11 1
     8    4    5 ar
     9    4   23 1
    10    5    6 ar
    11    5    7 1
    12    6   24 1
    13    7    8 2
    14    7   10 1
    15    8    9 1
    16    9   25 1
    17   10   26 1
    18   10   27 1
    19   11   12 1
    20   11   28 1
    21   11   29 1
    22   12   13 1
    23   13   18 ar
    24   13   14 ar
    25   14   15 ar
    26   14   30 1
    27   15   16 ar
    28   15   20 1
    29   16   17 ar
    30   16   31 1
    31   17   18 ar
    32   17   19 1
    33   18   32 1
@<TRIPOS>MOLECULE
ZINC37673447
   39    41     0     0     0
SMALL
USER_CHARGES

@<TRIPOS>ATOM
      1 C1         -0.5561    1.4855    0.1142 C.3       1 <0>        -0.1159
      2 C2         -0.4839   -0.0197    0.0958 C.2       1 <0>        -0.0891
      3 C3         -0.7710   -0.6990   -1.0244 C.2       1 <0>        -0.1447
      4 S1         -0.5464   -2.4023   -0.5479 S.3       1 <0>         0.1030
      5 C4         -0.0728   -2.1558    1.1430 C.ar      1 <0>         0.1511
      6 C5         -0.0967   -0.7512    1.2893 C.ar      1 <0>        -0.2464
      7 C6          0.2554   -0.2668    2.5789 C.ar      1 <0>         0.4907
      8 N1          0.5772   -1.1317    3.5273 N.ar      1 <0>        -0.5884
      9 C7          0.5830   -2.4358    3.3176 C.ar      1 <0>         0.3637
     10 N2          0.2561   -2.9458    2.1458 N.ar      1 <0>        -0.5246
     11 N3          0.2620    1.0918    2.8388 N.pl3     1 <0>        -0.6999
     12 C8          0.4980    1.5759    4.2012 C.3       1 <0>         0.1955
     13 H1          1.2097    0.9194    4.7018 H         1 <0>         0.0978
     14 C9         -0.8215    1.5829    4.9757 C.3       1 <0>        -0.1588
     15 C10         1.0565    2.9746    4.1477 C.ar      1 <0>        -0.1752
     16 C11         0.7958    3.7819    3.0576 C.ar      1 <0>        -0.0730
     17 C12         1.3082    5.0651    3.0074 C.ar      1 <0>        -0.1721
     18 C13         2.0827    5.5450    4.0480 C.ar      1 <0>        -0.0685
     19 C14         2.3468    4.7434    5.1409 C.ar      1 <0>        -0.1927
     20 C15         1.8291    3.4554    5.1969 C.ar      1 <0>         0.2316
     21 N4          2.0898    2.6437    6.3033 N.pl3     1 <0>        -0.8756
     22 C16        -1.1857   -0.1526   -2.3663 C.3       1 <0>        -0.0712
     23 H2          0.4388    1.8990   -0.0508 H         1 <0>         0.0780
     24 H3         -1.2267    1.8267   -0.6744 H         1 <0>         0.0833
     25 H4         -0.9326    1.8194    1.0810 H         1 <0>         0.0656
     26 H5          0.8534   -3.0995    4.1255 H         1 <0>         0.2075
     27 H6          0.1103    1.7241    2.1189 H         1 <0>         0.4128
     28 H7         -1.2254    0.5712    5.0145 H         1 <0>         0.0634
     29 H8         -0.6458    1.9431    5.9894 H         1 <0>         0.0686
     30 H9         -1.5332    2.2394    4.4751 H         1 <0>         0.0588
     31 H10         0.1914    3.4102    2.2434 H         1 <0>         0.1117
     32 H11         1.1035    5.6940    2.1536 H         1 <0>         0.1215
     33 H12         2.4817    6.5477    4.0055 H         1 <0>         0.1237
     34 H13         2.9519    5.1187    5.9529 H         1 <0>         0.1235
     35 H14         1.7312    1.7432    6.3395 H         1 <0>         0.3996
     36 H15         2.6296    2.9806    7.0355 H         1 <0>         0.4005
     37 H16        -0.2994    0.0304   -2.9737 H         1 <0>         0.0827
     38 H17        -1.8285   -0.8748   -2.8697 H         1 <0>         0.0777
     39 H18        -1.7293    0.7817   -2.2259 H         1 <0>         0.0839
@<TRIPOS>BOND
     1    1    2 1
     2    1   23 1
     3    1   24 1
     4    1   25 1
     5    2    6 1
     6    2    3 2
     7    3    4 1
     8    3   22 1
     9    4    5 1
    10    5   10 ar
    11    5    6 ar
    12    6    7 ar
    13    7    8 ar
    14    7   11 1
    15    8    9 ar
    16    9   10 ar
    17    9   26 1
    18   11   12 1
    19   11   27 1
    20   12   13 1
    21   12   14 1
    22   12   15 1
    23   14   28 1
    24   14   29 1
    25   14   30 1
    26   15   20 ar
    27   15   16 ar
    28   16   17 ar
    29   16   31 1
    30   17   18 ar
    31   17   32 1
    32   18   19 ar
    33   18   33 1
    34   19   20 ar
    35   19   34 1
    36   20   21 1
    37   21   35 1
    38   21   36 1
    39   22   37 1
    40   22   38 1
    41   22   39 1
@<TRIPOS>MOLECULE
ZINC45628782
   36    37     0     0     0
SMALL
USER_CHARGES

@<TRIPOS>ATOM
      1 C1         -0.0167    1.3783    0.0096 C.ar      1 <0>        -0.0673
      2 C2          1.1697    2.0893    0.0021 C.ar      1 <0>        -0.0800
      3 C3          2.3780    1.4195   -0.0130 C.ar      1 <0>        -0.0665
      4 C4          2.3999    0.0293   -0.0206 C.ar      1 <0>         0.2119
      5 C5          1.2067   -0.6805   -0.0130 C.ar      1 <0>        -0.0915
      6 C6          0.0021   -0.0041    0.0020 C.ar      1 <0>        -0.6245
      7 S1         -1.5124   -0.9045    0.0122 S.o2      1 <0>         2.6960
      8 O1         -1.2197   -2.1854    0.5533 O.2       1 <0>        -0.9524
      9 O2         -2.4924   -0.0446    0.5773 O.2       1 <0>        -0.9529
     10 N1         -1.9489   -1.1462   -1.5669 N.pl3     1 <0>        -1.1145
     11 C7         -1.1158   -1.9789   -2.4379 C.3       1 <0>         0.1189
     12 C8         -1.9036   -2.3477   -3.6966 C.3       1 <0>        -0.0950
     13 H1         -2.8438   -2.8216   -3.4146 H         1 <0>         0.0849
     14 C9         -1.0779   -3.3121   -4.5575 C.3       1 <0>        -0.1151
     15 C10        -1.9546   -3.8017   -5.7122 C.3       1 <0>        -0.0924
     16 C11        -2.6129   -2.6366   -6.3914 C.2       1 <0>        -0.1556
     17 C12        -2.7164   -1.4566   -5.8693 C.2       1 <0>        -0.1577
     18 C13        -2.1884   -1.0855   -4.5135 C.3       1 <0>        -0.0881
     19 N2          3.6200   -0.6519   -0.0363 N.pl3     1 <0>        -0.8680
     20 Cl1         3.8668    2.3123   -0.0230 Cl        1 <0>        -0.0571
     21 H2         -0.9598    1.9042    0.0260 H         1 <0>         0.1477
     22 H3          1.1515    3.1692    0.0077 H         1 <0>         0.1442
     23 H4          1.2201   -1.7604   -0.0193 H         1 <0>         0.1478
     24 H5         -2.7563   -0.7365   -1.9151 H         1 <0>         0.4203
     25 H6         -0.2191   -1.4267   -2.7193 H         1 <0>         0.0680
     26 H7         -0.8313   -2.8879   -1.9079 H         1 <0>         0.0836
     27 H8         -0.2052   -2.7935   -4.9544 H         1 <0>         0.0685
     28 H9         -0.7597   -4.1618   -3.9534 H         1 <0>         0.0716
     29 H10        -1.3369   -4.3380   -6.4326 H         1 <0>         0.0738
     30 H11        -2.7203   -4.4738   -5.3248 H         1 <0>         0.0752
     31 H12        -3.0256   -2.7922   -7.3772 H         1 <0>         0.1026
     32 H13        -3.2173   -0.6911   -6.4433 H         1 <0>         0.1032
     33 H14        -2.9240   -0.4747   -3.9900 H         1 <0>         0.0729
     34 H15        -1.2667   -0.5157   -4.6312 H         1 <0>         0.0768
     35 H16         4.4529   -0.1548   -0.0419 H         1 <0>         0.4045
     36 H17         3.6339   -1.6218   -0.0416 H         1 <0>         0.4062
@<TRIPOS>BOND
     1    1    6 ar
     2    1    2 ar
     3    1   21 1
     4    2    3 ar
     5    2   22 1
     6    3    4 ar
     7    3   20 1
     8    4    5 ar
     9    4   19 1
    10    5    6 ar
    11    5   23 1
    12    6    7 1
    13    7    8 2
    14    7    9 2
    15    7   10 1
    16   10   11 1
    17   10   24 1
    18   11   12 1
    19   11   25 1
    20   11   26 1
    21   12   13 1
    22   12   18 1
    23   12   14 1
    24   14   15 1
    25   14   27 1
    26   14   28 1
    27   15   16 1
    28   15   29 1
    29   15   30 1
    30   16   17 2
    31   16   31 1
    32   17   18 1
    33   17   32 1
    34   18   33 1
    35   18   34 1
    36   19   35 1
    37   19   36 1
@<TRIPOS>MOLECULE
ZINC53168441
   32    34     0     0     0
SMALL
USER_CHARGES

@<TRIPOS>ATOM
      1 C1         -0.0173    1.4248    0.0099 C.3       1 <0>         0.0263
      2 O1          0.0021   -0.0041    0.0020 O.3       1 <0>        -0.3144
      3 C2         -1.2010   -0.6379    0.0101 C.ar      1 <0>         0.1494
      4 C3         -2.3760    0.1072    0.0195 C.ar      1 <0>        -0.2029
      5 C4         -3.6006   -0.5215    0.0278 C.ar      1 <0>        -0.0213
      6 C5         -3.6658   -1.9172    0.0262 C.ar      1 <0>         0.0207
      7 C6         -2.4780   -2.6665    0.0162 C.ar      1 <0>         0.0986
      8 C7         -1.2509   -2.0208    0.0032 C.ar      1 <0>        -0.1555
      9 N1         -2.8614   -3.9975    0.0172 N.pl3     1 <0>        -0.5819
     10 H1         -2.2702   -4.7665    0.0116 H         1 <0>         0.4275
     11 C8         -4.2284   -4.0255    0.0274 C.2       1 <0>         0.2313
     12 N2         -4.6980   -2.8026    0.0327 N.2       1 <0>        -0.4699
     13 S1         -5.2114   -5.4878    0.0317 S.3       1 <0>         0.1246
     14 C9         -6.8680   -4.8878    0.0453 C.ar      1 <0>        -0.2394
     15 C10        -7.5144   -4.6468    1.2572 C.ar      1 <0>         0.3036
     16 C11        -8.8180   -4.1747    1.2626 C.ar      1 <0>        -0.1889
     17 C12        -9.4761   -3.9437    0.0682 C.ar      1 <0>        -0.0358
     18 C13        -8.8368   -4.1821   -1.1361 C.ar      1 <0>        -0.0032
     19 C14        -7.5315   -4.6482   -1.1505 C.ar      1 <0>         0.1824
     20 F1         -6.9074   -4.8745   -2.3271 F         1 <0>        -0.1097
     21 F2         -9.4844   -3.9548   -2.2997 F         1 <0>        -0.1295
     22 N3         -6.8480   -4.8816    2.4669 N.pl3     1 <0>        -0.8522
     23 H2          1.0053    1.8021    0.0021 H         1 <0>         0.1025
     24 H3         -0.5445    1.7859   -0.8732 H         1 <0>         0.0581
     25 H4         -0.5275    1.7763    0.9067 H         1 <0>         0.0579
     26 H5         -2.3269    1.1861    0.0207 H         1 <0>         0.1385
     27 H6         -4.5089    0.0627    0.0358 H         1 <0>         0.1352
     28 H7         -0.3366   -2.5956   -0.0083 H         1 <0>         0.1335
     29 H8         -9.3202   -3.9875    2.2003 H         1 <0>         0.1466
     30 H9        -10.4918   -3.5767    0.0752 H         1 <0>         0.1533
     31 H10        -5.9361   -5.2122    2.4620 H         1 <0>         0.4074
     32 H11        -7.2986   -4.7137    3.3093 H         1 <0>         0.4075
@<TRIPOS>BOND
     1    1    2 1
     2    1   23 1
     3    1   24 1
     4    1   25 1
     5    2    3 1
     6    3    8 ar
     7    3    4 ar
     8    4    5 ar
     9    4   26 1
    10    5    6 ar
    11    5   27 1
    12    6   12 1
    13    6    7 ar
    14    7    8 ar
    15    7    9 1
    16    8   28 1
    17    9   10 1
    18    9   11 1
    19   11   12 2
    20   11   13 1
    21   13   14 1
    22   14   19 ar
    23   14   15 ar
    24   15   16 ar
    25   15   22 1
    26   16   17 ar
    27   16   29 1
    28   17   18 ar
    29   17   30 1
    30   18   19 ar
    31   18   21 1
    32   19   20 1
    33   22   31 1
    34   22   32 1
@<TRIPOS>MOLECULE
ZINC21300283
   31    32     0     0     0
SMALL
USER_CHARGES
5-bromo-N'-[(4-methoxyphenyl)methyl]pyrazine-2,3-diamine
@<TRIPOS>ATOM
      1 C1          9.4599   -4.1470   -1.3865 C.3       1 <0>         0.0224
      2 O1          8.8582   -3.9451   -0.1061 O.3       1 <0>        -0.3163
      3 C2          7.5716   -3.5075   -0.0911 C.ar      1 <0>         0.1372
      4 C3          6.9256   -3.2904    1.1173 C.ar      1 <0>        -0.1543
      5 C4          5.6179   -2.8452    1.1298 C.ar      1 <0>        -0.0585
      6 C5          4.9530   -2.6159   -0.0606 C.ar      1 <0>        -0.1490
      7 C6          5.5928   -2.8369   -1.2662 C.ar      1 <0>        -0.0577
      8 C7          6.9023   -3.2768   -1.2842 C.ar      1 <0>        -0.2111
      9 C8          3.5265   -2.1303   -0.0439 C.3       1 <0>         0.1841
     10 N1          3.5095   -0.6654   -0.0354 N.pl3     1 <0>        -0.7220
     11 C9          2.2961    0.0165   -0.0197 C.ar      1 <0>         0.3286
     12 C10         2.2765    1.4181   -0.0120 C.ar      1 <0>         0.3442
     13 N2          1.1183    2.0587    0.0024 N.ar      1 <0>        -0.4778
     14 C11        -0.0166    1.3755    0.0096 C.ar      1 <0>         0.0744
     15 C12         0.0021   -0.0041    0.0020 C.ar      1 <0>         0.0460
     16 N3          1.1558   -0.6562   -0.0125 N.ar      1 <0>        -0.4579
     17 Br1        -1.6247   -0.9681    0.0117 Br        1 <0>        -0.0039
     18 N4          3.4710    2.1337   -0.0191 N.pl3     1 <0>        -0.8608
     19 H1         10.4937   -4.4989   -1.2544 H         1 <0>         0.1041
     20 H2          9.4638   -3.1984   -1.9435 H         1 <0>         0.0577
     21 H3          8.8853   -4.8990   -1.9471 H         1 <0>         0.0582
     22 H4          7.4445   -3.4697    2.0473 H         1 <0>         0.1332
     23 H5          5.1147   -2.6757    2.0703 H         1 <0>         0.1312
     24 H6          5.0697   -2.6617   -2.1947 H         1 <0>         0.1265
     25 H7          7.4030   -3.4450   -2.2261 H         1 <0>         0.1303
     26 H8          3.0035   -2.4979   -0.9391 H         1 <0>         0.0713
     27 H9          3.0210   -2.5081    0.8571 H         1 <0>         0.0721
     28 H10         4.4556   -0.1043   -0.0414 H         1 <0>         0.4216
     29 H11        -0.9604    1.9006    0.0169 H         1 <0>         0.1716
     30 H12         3.4533    3.2335   -0.0130 H         1 <0>         0.4327
     31 H13         4.4323    1.5992   -0.0308 H         1 <0>         0.4218
@<TRIPOS>BOND
     1    1    2 1
     2    1   19 1
     3    1   20 1
     4    1   21 1
     5    2    3 1
     6    3    8 ar
     7    3    4 ar
     8    4    5 ar
     9    4   22 1
    10    5    6 ar
    11    5   23 1
    12    6    7 ar
    13    6    9 1
    14    7    8 ar
    15    7   24 1
    16    8   25 1
    17    9   10 1
    18    9   26 1
    19    9   27 1
    20   10   11 1
    21   10   28 1
    22   11   16 ar
    23   11   12 ar
    24   12   13 ar
    25   12   18 1
    26   13   14 ar
    27   14   15 ar
    28   14   29 1
    29   15   16 ar
    30   15   17 1
    31   18   30 1
    32   18   31 1
@<TRIPOS>MOLECULE
ZINC37981935
   35    36     0     0     0
SMALL
USER_CHARGES

@<TRIPOS>ATOM
      1 C1         -0.0167    1.3837    0.0096 C.ar      1 <0>        -0.0600
      2 C2          1.1913    2.0610    0.0018 C.ar      1 <0>        -0.1178
      3 C3          2.3761    1.3388   -0.0134 C.ar      1 <0>         0.1732
      4 N1          2.3657    0.0230   -0.0208 N.ar      1 <0>        -0.4401
      5 C4          1.2298   -0.6645   -0.0137 C.ar      1 <0>         0.1055
      6 C5          0.0021   -0.0041    0.0020 C.ar      1 <0>        -0.0392
      7 Cl1        -1.4820   -0.9047    0.0119 Cl        1 <0>         0.0008
      8 C6          1.2673   -2.1448   -0.0225 C.2       1 <0>         0.5686
      9 O1          0.2306   -2.7789   -0.0160 O.2       1 <0>        -0.5040
     10 N2          2.4511   -2.7888   -0.0377 N.am      1 <0>        -0.7023
     11 C7          2.4882   -4.2533   -0.0464 C.3       1 <0>         0.1432
     12 C8          2.3894   -4.7745    1.3887 C.3       1 <0>        -0.1317
     13 C9          3.5657   -4.2394    2.2077 C.3       1 <0>        -0.1000
     14 C10         4.8796   -4.7126    1.5826 C.3       1 <0>        -0.1086
     15 C11         4.9784   -4.1914    0.1475 C.3       1 <0>        -0.1140
     16 C12         3.8020   -4.7265   -0.6716 C.3       1 <0>        -0.1257
     17 C13         6.0382   -4.1856    2.3893 C.2       1 <0>         0.5190
     18 O2          5.8333   -3.4991    3.3679 O.2       1 <0>        -0.5391
     19 N3          7.3022   -4.4771    2.0233 N.am      1 <0>        -0.8569
     20 Cl2         3.8931    2.1829   -0.0234 Cl        1 <0>        -0.0088
     21 H1         -0.9522    1.9232    0.0259 H         1 <0>         0.1656
     22 H2          1.2111    3.1408    0.0070 H         1 <0>         0.1630
     23 H3          3.2786   -2.2827   -0.0429 H         1 <0>         0.4093
     24 H4          1.6501   -4.6345   -0.6299 H         1 <0>         0.0959
     25 H5          1.4534   -4.4374    1.8340 H         1 <0>         0.0750
     26 H6          2.4170   -5.8642    1.3822 H         1 <0>         0.0768
     27 H7          3.5381   -3.1498    2.2142 H         1 <0>         0.0708
     28 H8          3.4954   -4.6108    3.2301 H         1 <0>         0.0720
     29 H9          4.9072   -5.8023    1.5761 H         1 <0>         0.1013
     30 H10         4.9508   -3.1018    0.1540 H         1 <0>         0.0688
     31 H11         5.9144   -4.5285   -0.2979 H         1 <0>         0.0739
     32 H12         3.8296   -5.8161   -0.6780 H         1 <0>         0.0860
     33 H13         3.8724   -4.3552   -1.6940 H         1 <0>         0.0770
     34 H14         7.4660   -5.0261    1.2406 H         1 <0>         0.4010
     35 H15         8.0479   -4.1378    2.5425 H         1 <0>         0.4015
@<TRIPOS>BOND
     1    1    6 ar
     2    1    2 ar
     3    1   21 1
     4    2    3 ar
     5    2   22 1
     6    3    4 ar
     7    3   20 1
     8    4    5 ar
     9    5    6 ar
    10    5    8 1
    11    6    7 1
    12    8    9 2
    13    8   10 am
    14   10   11 1
    15   10   23 1
    16   11   16 1
    17   11   12 1
    18   11   24 1
    19   12   13 1
    20   12   25 1
    21   12   26 1
    22   13   14 1
    23   13   27 1
    24   13   28 1
    25   14   15 1
    26   14   17 1
    27   14   29 1
    28   15   16 1
    29   15   30 1
    30   15   31 1
    31   16   32 1
    32   16   33 1
    33   17   18 2
    34   17   19 am
    35   19   34 1
    36   19   35 1
@<TRIPOS>MOLECULE
ZINC41729044
   36    37     0     0     0
SMALL
USER_CHARGES

@<TRIPOS>ATOM
      1 C1         -0.5448    1.9885    0.2606 C.3       1 <0>        -0.1621
      2 C2         -0.2401    0.4994    0.0857 C.3       1 <0>         0.2321
      3 H1          0.2991    0.3463   -0.8491 H         1 <0>         0.1158
      4 C3          0.6057    0.0211    1.2376 C.2       1 <0>        -0.1642
      5 C4          1.9460   -0.1748    1.2889 C.2       1 <0>        -0.1382
      6 C5          2.5132   -0.6233    2.4669 C.2       1 <0>        -0.1572
      7 C6          1.7125   -0.8539    3.5360 C.2       1 <0>        -0.1632
      8 S1          0.1034   -0.4271    2.8911 S.3       1 <0>         0.0367
      9 N1         -1.4952   -0.2556    0.0549 N.am      1 <0>        -0.7215
     10 C7         -2.1722   -0.3904   -1.1027 C.2       1 <0>         0.5796
     11 O1         -1.7411    0.1148   -2.1219 O.2       1 <0>        -0.5217
     12 C8         -3.4327   -1.1486   -1.1337 C.2       1 <0>        -0.1302
     13 C9         -4.1248   -1.2865   -2.3171 C.2       1 <0>         0.0789
     14 C10        -5.4568   -1.8949   -2.3197 C.ar      1 <0>        -0.1015
     15 C11        -5.8640   -2.6922   -3.3990 C.ar      1 <0>        -0.0696
     16 C12        -7.1166   -3.2624   -3.3980 C.ar      1 <0>        -0.1343
     17 C13        -7.9801   -3.0506   -2.3301 C.ar      1 <0>         0.1081
     18 C14        -7.5832   -2.2587   -1.2520 C.ar      1 <0>         0.0812
     19 C15        -6.3274   -1.6870   -1.2402 C.ar      1 <0>        -0.1000
     20 O2         -8.4324   -2.0548   -0.2095 O.3       1 <0>        -0.4839
     21 O3         -9.2144   -3.6158   -2.3359 O.3       1 <0>        -0.4852
     22 C16        -3.9402   -1.7433    0.0661 C.1       1 <0>         0.2409
     23 N2         -4.3427   -2.2151    1.0178 N.1       1 <0>        -0.3986
     24 H2          0.3890    2.5503    0.2836 H         1 <0>         0.0751
     25 H3         -1.1566    2.3345   -0.5726 H         1 <0>         0.0743
     26 H4         -1.0840    2.1417    1.1954 H         1 <0>         0.0619
     27 H5          2.5614    0.0163    0.4223 H         1 <0>         0.1377
     28 H6          3.5785   -0.7878    2.5344 H         1 <0>         0.1382
     29 H7          1.9792   -1.2018    4.5231 H         1 <0>         0.1884
     30 H8         -1.8389   -0.6584    0.8675 H         1 <0>         0.4010
     31 H9         -3.6850   -0.9458   -3.2428 H         1 <0>         0.1715
     32 H10        -5.1952   -2.8584   -4.2306 H         1 <0>         0.1446
     33 H11        -7.4295   -3.8761   -4.2298 H         1 <0>         0.1437
     34 H12        -6.0176   -1.0775   -0.4042 H         1 <0>         0.1363
     35 H13        -8.3525   -2.7102    0.4969 H         1 <0>         0.3913
     36 H14        -9.2467   -4.4942   -1.9328 H         1 <0>         0.3939
@<TRIPOS>BOND
     1    1    2 1
     2    1   24 1
     3    1   25 1
     4    1   26 1
     5    2    3 1
     6    2    4 1
     7    2    9 1
     8    4    8 1
     9    4    5 2
    10    5    6 1
    11    5   27 1
    12    6    7 2
    13    6   28 1
    14    7    8 1
    15    7   29 1
    16    9   10 am
    17    9   30 1
    18   10   11 2
    19   10   12 1
    20   12   13 2
    21   12   22 1
    22   13   14 1
    23   13   31 1
    24   14   19 ar
    25   14   15 ar
    26   15   16 ar
    27   15   32 1
    28   16   17 ar
    29   16   33 1
    30   17   18 ar
    31   17   21 1
    32   18   19 ar
    33   18   20 1
    34   19   34 1
    35   20   35 1
    36   21   36 1
    37   22   23 3
@<TRIPOS>MOLECULE
ZINC51035936
   29    31     0     0     0
SMALL
USER_CHARGES

@<TRIPOS>ATOM
      1 C1         -0.0168    1.3848    0.0097 C.ar      1 <0>        -0.1842
      2 C2          1.1706    2.0905    0.0021 C.ar      1 <0>        -0.0406
      3 C3          2.3775    1.4162   -0.0130 C.ar      1 <0>        -0.1209
      4 C4          2.4003    0.0325   -0.0211 C.ar      1 <0>        -0.0218
      5 C5          1.2160   -0.6792   -0.0141 C.ar      1 <0>        -0.1723
      6 C6          0.0021   -0.0041    0.0020 C.ar      1 <0>         0.2342
      7 N1         -1.1970   -0.7203    0.0096 N.pl3     1 <0>        -0.8702
      8 Br1         4.0537   -0.8850   -0.0425 Br        1 <0>        -0.0378
      9 C7          3.6708    2.1897   -0.0212 C.3       1 <0>        -0.0511
     10 S1          4.2061    2.4908    1.6856 S.3       1 <0>        -0.0498
     11 C8          5.7098    3.3919    1.5081 C.ar      1 <0>         0.2040
     12 C9          6.4320    3.8044    2.6305 C.ar      1 <0>        -0.0557
     13 C10         7.6249    4.5195    2.4374 C.ar      1 <0>         0.3065
     14 N2          8.1179    4.7936    3.6598 N.2       1 <0>        -0.4879
     15 H1          5.5426    3.2430    4.4534 H         1 <0>         0.4328
     16 C11         7.3263    4.3061    4.5743 C.2       1 <0>         0.3089
     17 N3          6.2730    3.6870    3.9949 N.pl3     1 <0>        -0.5730
     18 N4          8.0227    4.7775    1.1869 N.ar      1 <0>        -0.4862
     19 C12         7.3101    4.3691    0.1606 C.ar      1 <0>         0.3160
     20 N5          6.1862    3.6900    0.3014 N.ar      1 <0>        -0.5199
     21 H2         -0.9590    1.9124    0.0260 H         1 <0>         0.1313
     22 H3          1.1562    3.1704    0.0077 H         1 <0>         0.1354
     23 H4          1.2340   -1.7591   -0.0212 H         1 <0>         0.1344
     24 H5         -2.0441   -0.2478    0.0202 H         1 <0>         0.4031
     25 H6         -1.1827   -1.6902    0.0043 H         1 <0>         0.4023
     26 H7          4.4344    1.6151   -0.5455 H         1 <0>         0.1116
     27 H8          3.5210    3.1427   -0.5285 H         1 <0>         0.1079
     28 H9          7.4882    4.3855    5.6391 H         1 <0>         0.2344
     29 H10         7.6593    4.5940   -0.8364 H         1 <0>         0.2083
@<TRIPOS>BOND
     1    1    6 ar
     2    1    2 ar
     3    1   21 1
     4    2    3 ar
     5    2   22 1
     6    3    4 ar
     7    3    9 1
     8    4    5 ar
     9    4    8 1
    10    5    6 ar
    11    5   23 1
    12    6    7 1
    13    7   24 1
    14    7   25 1
    15    9   10 1
    16    9   26 1
    17    9   27 1
    18   10   11 1
    19   11   20 ar
    20   11   12 ar
    21   12   13 ar
    22   12   17 1
    23   13   14 1
    24   13   18 ar
    25   14   16 2
    26   15   17 1
    27   16   28 1
    28   16   17 1
    29   18   19 ar
    30   19   29 1
    31   19   20 ar
@<TRIPOS>MOLECULE
ZINC62014587
   38    39     0     0     0
SMALL
USER_CHARGES

@<TRIPOS>ATOM
      1 C1          0.2339    1.2807   -0.0531 C.3       1 <0>        -0.1608
      2 C2         -0.0015   -0.2068    0.2171 C.3       1 <0>         0.1865
      3 H1          0.3602   -0.7914   -0.6288 H         1 <0>         0.1092
      4 C3          0.7407   -0.6145    1.4637 C.ar      1 <0>        -0.0922
      5 C4          0.0519   -0.8068    2.6466 C.ar      1 <0>        -0.1111
      6 C5          0.7325   -1.1808    3.7900 C.ar      1 <0>        -0.1120
      7 C6          2.1026   -1.3627    3.7514 C.ar      1 <0>        -0.1071
      8 C7          2.7923   -1.1707    2.5693 C.ar      1 <0>        -0.1069
      9 C8          2.1107   -0.8018    1.4230 C.ar      1 <0>        -0.0298
     10 Cl1         2.9755   -0.5669   -0.0638 Cl        1 <0>        -0.0646
     11 N1         -1.4346   -0.4489    0.4008 N.pl3     1 <0>        -0.5993
     12 C9         -2.1943    0.3485    1.3669 C.3       1 <0>         0.0826
     13 C10        -2.0724   -1.4334   -0.3400 C.ar      1 <0>         0.4216
     14 C11        -1.4136   -2.0154   -1.4208 C.ar      1 <0>        -0.2405
     15 C12        -2.0540   -2.9937   -2.1529 C.ar      1 <0>         0.0175
     16 C13        -3.3521   -3.3654   -1.7766 C.ar      1 <0>        -0.1678
     17 C14        -3.9459   -2.7376   -0.6834 C.ar      1 <0>         0.1837
     18 N2         -3.2979   -1.8112   -0.0069 N.ar      1 <0>        -0.5357
     19 C15        -4.0815   -4.4088   -2.5296 C.2       1 <0>         0.4275
     20 N3         -3.5184   -4.9889   -3.5494 N.2       1 <0>        -0.4249
     21 O1         -4.2167   -5.9879   -4.2703 O.3       1 <0>        -0.4244
     22 N4         -5.3635   -4.7685   -2.1494 N.pl3     1 <0>        -0.8710
     23 H2          1.3002    1.4608   -0.1899 H         1 <0>         0.0770
     24 H3         -0.3030    1.5756   -0.9548 H         1 <0>         0.0699
     25 H4         -0.1279    1.8653    0.7927 H         1 <0>         0.0650
     26 H5         -1.0182   -0.6646    2.6775 H         1 <0>         0.1455
     27 H6          0.1940   -1.3306    4.7141 H         1 <0>         0.1301
     28 H7          2.6339   -1.6545    4.6452 H         1 <0>         0.1331
     29 H8          3.8625   -1.3125    2.5393 H         1 <0>         0.1356
     30 H9         -2.6848    1.1738    0.8509 H         1 <0>         0.0544
     31 H10        -2.9462   -0.2794    1.8449 H         1 <0>         0.0826
     32 H11        -1.5170    0.7444    2.1237 H         1 <0>         0.0767
     33 H12        -0.4131   -1.7040   -1.6827 H         1 <0>         0.1393
     34 H13        -1.5671   -3.4616   -2.9958 H         1 <0>         0.1478
     35 H14        -4.9457   -3.0164   -0.3849 H         1 <0>         0.1574
     36 H15        -3.7177   -6.3602   -5.0102 H         1 <0>         0.4003
     37 H16        -5.7832   -4.3361   -1.3892 H         1 <0>         0.3952
     38 H17        -5.8418   -5.4528   -2.6431 H         1 <0>         0.4097
@<TRIPOS>BOND
     1    1    2 1
     2    1   23 1
     3    1   24 1
     4    1   25 1
     5    2    3 1
     6    2    4 1
     7    2   11 1
     8    4    9 ar
     9    4    5 ar
    10    5    6 ar
    11    5   26 1
    12    6    7 ar
    13    6   27 1
    14    7    8 ar
    15    7   28 1
    16    8    9 ar
    17    8   29 1
    18    9   10 1
    19   11   12 1
    20   11   13 1
    21   12   30 1
    22   12   31 1
    23   12   32 1
    24   13   18 ar
    25   13   14 ar
    26   14   15 ar
    27   14   33 1
    28   15   16 ar
    29   15   34 1
    30   16   17 ar
    31   16   19 1
    32   17   18 ar
    33   17   35 1
    34   19   20 2
    35   19   22 1
    36   20   21 1
    37   21   36 1
    38   22   37 1
    39   22   38 1
@<TRIPOS>MOLECULE
ZINC21058584
   38    40     0     0     0
SMALL
USER_CHARGES
(3R)-N-(6-amino-1,3-benzothiazol-2-yl)-3-methyl-piperidine-1-sulfonamide
@<TRIPOS>ATOM
      1 C1         -0.0808    0.9726    2.5050 C.3       1 <0>        -0.1446
      2 C2         -0.7355    1.5827    1.2640 C.3       1 <0>        -0.1065
      3 H1         -0.6672    2.6790    1.3229 H         1 <0>         0.0707
      4 C3         -2.2083    1.1610    1.1968 C.3       1 <0>        -0.1076
      5 C4         -2.8694    1.7974   -0.0279 C.3       1 <0>        -0.1349
      6 C5         -2.1677    1.3030   -1.2967 C.3       1 <0>         0.1351
      7 N1         -0.7287    1.5752   -1.1779 N.pl3     1 <0>        -1.0093
      8 C6         -0.0127    1.0858    0.0080 C.3       1 <0>         0.1295
      9 S1          0.0707    2.4182   -2.3581 S.o2      1 <0>         2.7320
     10 O1         -0.9056    3.2034   -3.0285 O.2       1 <0>        -1.0237
     11 O2          1.2170    2.9899   -1.7430 O.2       1 <0>        -1.0089
     12 N2          0.6261    1.3125   -3.4587 N.2       1 <0>        -1.0210
     13 C7         -0.2691    0.5706   -4.2040 C.2       1 <0>         0.4845
     14 N3         -1.5814    0.5954   -4.1780 N.2       1 <0>        -0.6364
     15 C8         -2.3386   -0.1920   -4.9762 C.ar      1 <0>         0.1091
     16 C9         -3.7489   -0.2587   -5.0491 C.ar      1 <0>        -0.0684
     17 C10        -4.3674   -1.1222   -5.9144 C.ar      1 <0>        -0.1723
     18 C11        -3.6344   -1.9626   -6.7492 C.ar      1 <0>         0.1881
     19 C12        -2.2470   -1.9217   -6.7015 C.ar      1 <0>        -0.1343
     20 C13        -1.6253   -1.0571   -5.8359 C.ar      1 <0>        -0.1372
     21 S2          0.0645   -0.6730   -5.4434 S.3       1 <0>        -0.0967
     22 N4         -4.2878   -2.8368   -7.6254 N.pl3     1 <0>        -0.9052
     23 H2         -0.6001    1.3297    3.4066 H         1 <0>         0.0525
     24 H3          0.9764    1.2736    2.5473 H         1 <0>         0.0563
     25 H4         -0.1480   -0.1241    2.4533 H         1 <0>         0.0540
     26 H5         -2.2729    0.0657    1.1191 H         1 <0>         0.0597
     27 H6         -2.7273    1.4952    2.1073 H         1 <0>         0.0550
     28 H7         -3.9316    1.5134   -0.0602 H         1 <0>         0.0649
     29 H8         -2.7844    2.8922    0.0369 H         1 <0>         0.0605
     30 H9         -2.3346    0.2217   -1.4103 H         1 <0>         0.0529
     31 H10        -2.5762    1.8309   -2.1710 H         1 <0>         0.1010
     32 H11         1.0189    1.4676    0.0034 H         1 <0>         0.0852
     33 H12         0.0034   -0.0141    0.0051 H         1 <0>         0.0550
     34 H13        -4.3463    0.3797   -4.4150 H         1 <0>         0.1184
     35 H14        -5.4464   -1.1523   -5.9497 H         1 <0>         0.1134
     36 H15        -1.6616   -2.5653   -7.3414 H         1 <0>         0.1130
     37 H16        -3.7021   -3.4974   -8.2816 H         1 <0>         0.4080
     38 H17        -5.3870   -2.8632   -7.6579 H         1 <0>         0.4081
@<TRIPOS>BOND
     1    1    2 1
     2    1   23 1
     3    1   24 1
     4    1   25 1
     5    2    3 1
     6    2    8 1
     7    2    4 1
     8    4    5 1
     9    4   26 1
    10    4   27 1
    11    5    6 1
    12    5   28 1
    13    5   29 1
    14    6    7 1
    15    6   30 1
    16    6   31 1
    17    7    8 1
    18    7    9 1
    19    8   32 1
    20    8   33 1
    21    9   10 2
    22    9   11 2
    23    9   12 1
    24   12   13 1
    25   13   21 1
    26   13   14 2
    27   14   15 1
    28   15   20 ar
    29   15   16 ar
    30   16   17 ar
    31   16   34 1
    32   17   18 ar
    33   17   35 1
    34   18   19 ar
    35   18   22 1
    36   19   20 ar
    37   19   36 1
    38   20   21 1
    39   22   37 1
    40   22   38 1
@<TRIPOS>MOLECULE
ZINC37448764
   34    35     0     0     0
SMALL
USER_CHARGES

@<TRIPOS>ATOM
      1 C1          0.0253    1.5015    0.0053 C.3       1 <0>        -0.1473
      2 C2          0.0141   -0.0055    0.0009 C.2       1 <0>         0.1089
      3 C3         -0.0957   -0.7094   -1.1980 C.2       1 <0>        -0.2395
      4 C4         -0.1050   -2.0670   -1.1929 C.2       1 <0>         0.1927
      5 N1         -0.0091   -2.7656   -0.0366 N.am      1 <0>        -0.6004
      6 H1         -0.0184   -3.7352   -0.0627 H         1 <0>         0.4179
      7 C5          0.0994   -2.1358    1.1486 C.2       1 <0>         0.5382
      8 O1          0.1855   -2.7819    2.1786 O.2       1 <0>        -0.5439
      9 C6          0.1190   -0.7175    1.1943 C.2       1 <0>        -0.2899
     10 C7          0.2426   -0.0119    2.4782 C.2       1 <0>         0.5648
     11 O2          0.1444    1.2000    2.5181 O.2       1 <0>        -0.5102
     12 N2          0.4645   -0.7077    3.6109 N.am      1 <0>        -0.6019
     13 C8          0.4697   -0.0562    4.8350 C.2       1 <0>        -0.0379
     14 C9          0.6827   -0.5997    6.0835 C.2       1 <0>        -0.2172
     15 C10         0.6455    0.2257    7.1734 C.2       1 <0>        -0.0865
     16 C11         0.3898    1.5686    6.9113 C.2       1 <0>        -0.2398
     17 S1          0.2249    1.5783    5.1365 S.3       1 <0>         0.2771
     18 C12         0.2913    2.6463    7.8174 C.2       1 <0>         0.5542
     19 O3          0.4394    2.4526    9.0188 O.co2     1 <0>        -0.6761
     20 O4          0.0577    3.7762    7.4029 O.co2     1 <0>        -0.6909
     21 C13         0.8673   -0.2876    8.5729 C.3       1 <0>        -0.0864
     22 C14        -0.2249   -2.8105   -2.4982 C.3       1 <0>        -0.1311
     23 H2          1.0556    1.8572    0.0159 H         1 <0>         0.0914
     24 H3         -0.4775    1.8712   -0.8883 H         1 <0>         0.0696
     25 H4         -0.4941    1.8661    0.8915 H         1 <0>         0.1203
     26 H5         -0.1738   -0.1735   -2.1324 H         1 <0>         0.1558
     27 H6          0.6207   -1.6641    3.5699 H         1 <0>         0.4234
     28 H7          0.8747   -1.6563    6.1988 H         1 <0>         0.1175
     29 H8          1.9291   -0.2381    8.8140 H         1 <0>         0.0570
     30 H9          0.3057    0.3253    9.2779 H         1 <0>         0.0927
     31 H10         0.5274   -1.3211    8.6389 H         1 <0>         0.0422
     32 H11         0.7699   -2.9972   -2.9027 H         1 <0>         0.0957
     33 H12        -0.7328   -3.7602   -2.3301 H         1 <0>         0.0813
     34 H13        -0.7985   -2.2120   -3.2059 H         1 <0>         0.0983
@<TRIPOS>BOND
     1    1    2 1
     2    1   23 1
     3    1   24 1
     4    1   25 1
     5    2    9 2
     6    2    3 1
     7    3    4 2
     8    3   26 1
     9    4    5 1
    10    4   22 1
    11    5    6 1
    12    5    7 am
    13    7    8 2
    14    7    9 1
    15    9   10 1
    16   10   11 2
    17   10   12 am
    18   12   13 1
    19   12   27 1
    20   13   17 1
    21   13   14 2
    22   14   15 1
    23   14   28 1
    24   15   16 2
    25   15   21 1
    26   16   17 1
    27   16   18 1
    28   18   19 2
    29   18   20 1
    30   21   29 1
    31   21   30 1
    32   21   31 1
    33   22   32 1
    34   22   33 1
    35   22   34 1
@<TRIPOS>MOLECULE
ZINC47932014
   34    36     0     0     0
SMALL
USER_CHARGES

@<TRIPOS>ATOM
      1 C1         -0.0167    1.3782    0.0096 C.ar      1 <0>        -0.0697
      2 C2          1.1703    2.0860    0.0021 C.ar      1 <0>        -0.1556
      3 C3          2.3786    1.4101   -0.0131 C.ar      1 <0>         0.1044
      4 C4          2.3962    0.0256   -0.0207 C.ar      1 <0>        -0.1556
      5 C5          1.2079   -0.6800   -0.0132 C.ar      1 <0>        -0.0698
      6 C6          0.0021   -0.0041    0.0020 C.ar      1 <0>        -0.1185
      7 C7         -1.2930   -0.7747    0.0103 C.3       1 <0>         0.1621
      8 N1         -1.7258   -1.0170   -1.3682 N.am      1 <0>        -0.7256
      9 C8         -2.8669   -1.6932   -1.6072 C.2       1 <0>         0.5630
     10 O1         -3.5366   -2.1020   -0.6793 O.2       1 <0>        -0.5300
     11 C9         -3.3046   -1.9382   -3.0010 C.ar      1 <0>        -0.0815
     12 C10        -2.5231   -1.4682   -4.0679 C.ar      1 <0>        -0.1674
     13 C11        -2.9041   -1.6807   -5.3577 C.ar      1 <0>        -0.0118
     14 C12        -4.0903   -2.3769   -5.6302 C.ar      1 <0>        -0.2230
     15 C13        -4.8906   -2.8580   -4.5609 C.ar      1 <0>         0.2147
     16 C14        -4.4784   -2.6340   -3.2393 C.ar      1 <0>        -0.0718
     17 N2         -6.0216   -3.5221   -4.8385 N.2       1 <0>        -0.5503
     18 C15        -6.3938   -3.7303   -6.0921 C.2       1 <0>         0.5084
     19 N3         -5.6722   -3.2962   -7.1387 N.pl3     1 <0>        -0.6013
     20 H1         -5.9836   -3.4721   -8.0404 H         1 <0>         0.4206
     21 C16        -4.5192   -2.6178   -6.9528 C.2       1 <0>         0.5038
     22 O2         -3.7979   -2.1839   -8.0012 O.3       1 <0>        -0.6131
     23 S1         -7.8474   -4.5844   -6.3899 S.2       1 <0>        -0.7104
     24 F1          3.5396    2.1009   -0.0209 F         1 <0>        -0.1393
     25 H2         -0.9592    1.9052    0.0260 H         1 <0>         0.1368
     26 H3          1.1554    3.1659    0.0077 H         1 <0>         0.1375
     27 H4          3.3381   -0.5027   -0.0329 H         1 <0>         0.1375
     28 H5          1.2213   -1.7599   -0.0195 H         1 <0>         0.1368
     29 H6         -1.1453   -1.7280    0.5176 H         1 <0>         0.0803
     30 H7         -2.0553   -0.1984    0.5345 H         1 <0>         0.0803
     31 H8         -1.1912   -0.6907   -2.1089 H         1 <0>         0.4034
     32 H9         -1.6087   -0.9311   -3.8634 H         1 <0>         0.1220
     33 H10        -2.2939   -1.3134   -6.1695 H         1 <0>         0.1357
     34 H11        -5.0732   -2.9973   -2.4143 H         1 <0>         0.1473
@<TRIPOS>BOND
     1    1    6 ar
     2    1    2 ar
     3    1   25 1
     4    2    3 ar
     5    2   26 1
     6    3    4 ar
     7    3   24 1
     8    4    5 ar
     9    4   27 1
    10    5    6 ar
    11    5   28 1
    12    6    7 1
    13    7    8 1
    14    7   29 1
    15    7   30 1
    16    8    9 am
    17    8   31 1
    18    9   10 2
    19    9   11 1
    20   11   16 ar
    21   11   12 ar
    22   12   13 ar
    23   12   32 1
    24   13   14 ar
    25   13   33 1
    26   14   21 2
    27   14   15 ar
    28   15   16 ar
    29   15   17 2
    30   16   34 1
    31   17   18 1
    32   18   19 1
    33   18   23 2
    34   19   20 1
    35   19   21 1
    36   21   22 1
@<TRIPOS>MOLECULE
ZINC05687437
   34    36     0     0     0
SMALL
USER_CHARGES

@<TRIPOS>ATOM
      1 C1          0.0705    1.4901    0.1870 C.ar      1 <0>        -0.1258
      2 C2          1.2548    2.1547    0.4502 C.ar      1 <0>        -0.1171
      3 C3          2.4509    1.4663    0.4465 C.ar      1 <0>        -0.1153
      4 C4          2.4641    0.0988    0.1774 C.ar      1 <0>        -0.0329
      5 C5          1.2677   -0.5657   -0.0866 C.ar      1 <0>        -0.1149
      6 C6          0.0775    0.1329   -0.0807 C.ar      1 <0>        -0.1168
      7 C7          3.7465   -0.6464    0.1716 C.ar      1 <0>        -0.0766
      8 C8          4.9417    0.0192    0.4411 C.ar      1 <0>        -0.0773
      9 C9          6.1324   -0.6747    0.4353 C.ar      1 <0>        -0.1434
     10 C10         6.1423   -2.0385    0.1601 C.ar      1 <0>         0.1669
     11 C11         4.9507   -2.7040   -0.1095 C.ar      1 <0>        -0.1337
     12 C12         3.7576   -2.0145   -0.0979 C.ar      1 <0>        -0.0798
     13 N1          7.3471   -2.7384    0.1541 N.pl3     1 <0>        -0.4508
     14 N2          7.3572   -4.0029   -0.1009 N.2       1 <0>        -0.0787
     15 C13         8.5069   -4.6446   -0.2165 C.2       1 <0>        -0.1365
     16 C14         9.7920   -3.9270   -0.2174 C.2       1 <0>         0.4896
     17 O1          9.8324   -2.5827   -0.0988 O.3       1 <0>        -0.6133
     18 N3         10.9050   -4.6288   -0.3365 N.2       1 <0>        -0.5892
     19 C15        10.8962   -5.9541   -0.4546 C.2       1 <0>         0.5519
     20 S1         12.3980   -6.7625   -0.6030 S.2       1 <0>        -0.6530
     21 N4          9.7763   -6.6917   -0.4634 N.am      1 <0>        -0.6452
     22 C16         8.5609   -6.1152   -0.3444 C.2       1 <0>         0.5893
     23 O2          7.5445   -6.7842   -0.3469 O.2       1 <0>        -0.5000
     24 H1         -0.8637    2.0319    0.1949 H         1 <0>         0.1202
     25 H2          1.2434    3.2143    0.6586 H         1 <0>         0.1224
     26 H3          3.3750    1.9863    0.6515 H         1 <0>         0.1256
     27 H4          1.2721   -1.6252   -0.2961 H         1 <0>         0.1260
     28 H5         -0.8501   -0.3809   -0.2852 H         1 <0>         0.1226
     29 H6          4.9345    1.0780    0.6541 H         1 <0>         0.1326
     30 H7          7.0583   -0.1595    0.6440 H         1 <0>         0.1350
     31 H8          4.9603   -3.7625   -0.3236 H         1 <0>         0.1428
     32 H9          2.8322   -2.5323   -0.3025 H         1 <0>         0.1313
     33 H10         8.1783   -2.2749    0.3417 H         1 <0>         0.4200
     34 H11         9.8405   -7.6554   -0.5528 H         1 <0>         0.4244
@<TRIPOS>BOND
     1    1    6 ar
     2    1    2 ar
     3    1   24 1
     4    2    3 ar
     5    2   25 1
     6    3    4 ar
     7    3   26 1
     8    4    5 ar
     9    4    7 1
    10    5    6 ar
    11    5   27 1
    12    6   28 1
    13    7   12 ar
    14    7    8 ar
    15    8    9 ar
    16    8   29 1
    17    9   10 ar
    18    9   30 1
    19   10   11 ar
    20   10   13 1
    21   11   12 ar
    22   11   31 1
    23   12   32 1
    24   13   14 1
    25   13   33 1
    26   14   15 2
    27   15   22 1
    28   15   16 1
    29   16   17 1
    30   16   18 2
    31   18   19 1
    32   19   20 2
    33   19   21 1
    34   21   22 am
    35   21   34 1
    36   22   23 2
@<TRIPOS>MOLECULE
ZINC62946956
   32    33     0     0     0
SMALL
USER_CHARGES

@<TRIPOS>ATOM
      1 C1          0.7212    1.4945   -0.0031 C.3       1 <0>        -0.1162
      2 C2          0.5810   -0.0060   -0.0063 C.ar      1 <0>        -0.0951
      3 C3          1.3247   -0.7704    0.8739 C.ar      1 <0>        -0.0861
      4 C4          1.1986   -2.1456    0.8736 C.ar      1 <0>        -0.1090
      5 C5          0.3234   -2.7617   -0.0117 C.ar      1 <0>         0.1782
      6 C6         -0.4227   -1.9924   -0.8943 C.ar      1 <0>        -0.1378
      7 C7         -0.2959   -0.6158   -0.8862 C.ar      1 <0>        -0.0175
      8 Cl1        -1.2329    0.3481   -1.9846 Cl        1 <0>        -0.0687
      9 N1          0.1942   -4.1550   -0.0143 N.am      1 <0>        -0.6833
     10 C8          0.3148   -4.8451    1.1371 C.2       1 <0>         0.6983
     11 O1          0.4419   -4.2520    2.1909 O.2       1 <0>        -0.5387
     12 N2          0.2947   -6.1926    1.1204 N.am      1 <0>        -0.6712
     13 C9          0.3106   -6.9079    2.3238 C.ar      1 <0>         0.0836
     14 C10        -0.2944   -6.3855    3.4609 C.ar      1 <0>        -0.0436
     15 C11        -0.2514   -7.1402    4.6397 C.ar      1 <0>        -0.1608
     16 C12         0.3937   -8.3795    4.6254 C.ar      1 <0>         0.1114
     17 N3          0.9529   -8.8334    3.5236 N.ar      1 <0>        -0.4804
     18 C13         0.9266   -8.1515    2.3948 C.ar      1 <0>         0.0636
     19 C14        -0.8767   -6.6346    5.8768 C.2       1 <0>         0.5250
     20 O2         -1.4384   -5.5484    5.8782 O.co2     1 <0>        -0.6774
     21 O3         -0.8332   -7.3019    6.9007 O.co2     1 <0>        -0.6816
     22 H1          0.0053    1.9248    0.6972 H         1 <0>         0.0745
     23 H2          1.7329    1.7642    0.2998 H         1 <0>         0.0698
     24 H3          0.5266    1.8797   -1.0041 H         1 <0>         0.0709
     25 H4          2.0052   -0.2914    1.5623 H         1 <0>         0.1362
     26 H5          1.7804   -2.7417    1.5610 H         1 <0>         0.1442
     27 H6         -1.1040   -2.4686   -1.5838 H         1 <0>         0.1356
     28 H7          0.0179   -4.6242   -0.8447 H         1 <0>         0.4080
     29 H8          0.2690   -6.6668    0.2746 H         1 <0>         0.4057
     30 H9         -0.7843   -5.4233    3.4360 H         1 <0>         0.1507
     31 H10         0.4341   -8.9711    5.5280 H         1 <0>         0.1646
     32 H11         1.3945   -8.5643    1.5133 H         1 <0>         0.1471
@<TRIPOS>BOND
     1    1    2 1
     2    1   22 1
     3    1   23 1
     4    1   24 1
     5    2    7 ar
     6    2    3 ar
     7    3    4 ar
     8    3   25 1
     9    4    5 ar
    10    4   26 1
    11    5    6 ar
    12    5    9 1
    13    6    7 ar
    14    6   27 1
    15    7    8 1
    16    9   10 am
    17    9   28 1
    18   10   11 2
    19   10   12 am
    20   12   13 1
    21   12   29 1
    22   13   18 ar
    23   13   14 ar
    24   14   15 ar
    25   14   30 1
    26   15   16 ar
    27   15   19 1
    28   16   17 ar
    29   16   31 1
    30   17   18 ar
    31   18   32 1
    32   19   20 2
    33   19   21 1
@<TRIPOS>MOLECULE
ZINC23506704
   52    55     0     0     0
SMALL
USER_CHARGES
5-[(2S)-1-[(3,5-dimethyl-2-pyrazol-1-yl-phenyl)methyl]pyrrolidin-2-yl]thiophene-2-carboxamide
@<TRIPOS>ATOM
      1 C1         -2.6808    1.1822   -0.2414 C.3       1 <0>        -0.1291
      2 C2         -1.3313    1.8425   -0.1240 C.ar      1 <0>        -0.0606
      3 C3         -0.1902    1.0675   -0.0240 C.ar      1 <0>        -0.0771
      4 C4          1.0484    1.6696    0.0785 C.ar      1 <0>        -0.0667
      5 C5          1.1469    3.0546    0.0863 C.ar      1 <0>         0.1587
      6 C6         -0.0007    3.8299   -0.0090 C.ar      1 <0>        -0.1329
      7 C7         -1.2368    3.2218   -0.1112 C.ar      1 <0>        -0.0891
      8 C8          0.1020    5.3334   -0.0013 C.3       1 <0>         0.0283
      9 N1          0.3797    5.8121   -1.3621 N.4       1 <0>        -0.4066
     10 C9          1.8241    5.6863   -1.6863 C.3       1 <0>        -0.0043
     11 C10         2.0498    6.6776   -2.8480 C.3       1 <0>        -0.1421
     12 C11         0.9185    7.7176   -2.7131 C.3       1 <0>        -0.1342
     13 C12         0.1044    7.2671   -1.4811 C.3       1 <0>         0.1406
     14 H1          0.3685    7.7968   -0.5539 H         1 <0>         0.1606
     15 C13        -1.3662    7.5070   -1.7066 C.2       1 <0>        -0.2514
     16 C14        -2.1527    8.4824   -1.1807 C.2       1 <0>        -0.1015
     17 C15        -3.4826    8.5255   -1.5179 C.2       1 <0>        -0.0851
     18 C16        -3.9446    7.5520   -2.3897 C.2       1 <0>        -0.1747
     19 S1         -2.4628    6.6100   -2.7057 S.3       1 <0>         0.1363
     20 C17        -5.2970    7.3521   -2.9186 C.2       1 <0>         0.5989
     21 O1         -6.1953    8.1058   -2.5931 O.2       1 <0>        -0.5143
     22 N2         -5.5456    6.3335   -3.7655 N.am      1 <0>        -0.8652
     23 N3          2.4028    3.6688    0.1897 N.pl3     1 <0>        -0.3456
     24 C18         3.4902    3.3887   -0.5638 C.2       1 <0>         0.0533
     25 C19         4.4940    4.1988   -0.1551 C.2       1 <0>        -0.2507
     26 C20         4.0081    4.9940    0.8886 C.2       1 <0>         0.0646
     27 N4          2.7553    4.6772    1.0959 N.2       1 <0>        -0.2998
     28 C21         2.2918    0.8244    0.1812 C.3       1 <0>        -0.1394
     29 H2         -2.5561    0.0893   -0.2345 H         1 <0>         0.0775
     30 H3         -3.1593    1.4907   -1.1826 H         1 <0>         0.0808
     31 H4         -3.3120    1.4846    0.6072 H         1 <0>         0.0822
     32 H5         -0.2675   -0.0098   -0.0304 H         1 <0>         0.1456
     33 H6         -2.1300    3.8244   -0.1853 H         1 <0>         0.1409
     34 H7         -0.8464    5.7639    0.3525 H         1 <0>         0.1372
     35 H8          0.9174    5.6418    0.6695 H         1 <0>         0.1549
     36 H9          2.4227    5.9491   -0.8016 H         1 <0>         0.1338
     37 H10         2.0443    4.6503   -1.9834 H         1 <0>         0.1259
     38 H11         3.0417    7.1420   -2.7462 H         1 <0>         0.1158
     39 H12         1.9936    6.1392   -3.8056 H         1 <0>         0.1013
     40 H13         1.3546    8.7169   -2.5677 H         1 <0>         0.1211
     41 H14         0.3063    7.7142   -3.6270 H         1 <0>         0.1048
     42 H15        -1.7362    9.2154   -0.5056 H         1 <0>         0.1531
     43 H16        -4.1403    9.2846   -1.1209 H         1 <0>         0.1639
     44 H17        -6.5605    6.1834   -4.1624 H         1 <0>         0.4434
     45 H18        -4.7336    5.6522   -4.0598 H         1 <0>         0.4166
     46 H19         3.5465    2.6525   -1.3521 H         1 <0>         0.1831
     47 H20         5.4950    4.2239   -0.5600 H         1 <0>         0.1626
     48 H21         4.5703    5.7403    1.4303 H         1 <0>         0.1968
     49 H22         3.1740    1.4774    0.2542 H         1 <0>         0.0757
     50 H23         2.3785    0.1896   -0.7129 H         1 <0>         0.0872
     51 H24         2.2305    0.1893    1.0773 H         1 <0>         0.0868
     52 H25        -0.2586    5.2031   -2.0191 H         1 <0>         0.4380
@<TRIPOS>BOND
     1    1    2 1
     2    1   29 1
     3    1   30 1
     4    1   31 1
     5    2    7 ar
     6    2    3 ar
     7    3    4 ar
     8    3   32 1
     9    4    5 ar
    10    4   28 1
    11    5    6 ar
    12    5   23 1
    13    6    7 ar
    14    6    8 1
    15    7   33 1
    16    8    9 1
    17    8   34 1
    18    8   35 1
    19    9   13 1
    20    9   10 1
    21    9   52 1
    22   10   11 1
    23   10   36 1
    24   10   37 1
    25   11   12 1
    26   11   38 1
    27   11   39 1
    28   12   13 1
    29   12   40 1
    30   12   41 1
    31   13   14 1
    32   13   15 1
    33   15   19 1
    34   15   16 2
    35   16   17 1
    36   16   42 1
    37   17   18 2
    38   17   43 1
    39   18   19 1
    40   18   20 1
    41   20   21 2
    42   20   22 am
    43   22   44 1
    44   22   45 1
    45   23   27 1
    46   23   24 1
    47   24   25 2
    48   24   46 1
    49   25   26 1
    50   25   47 1
    51   26   27 2
    52   26   48 1
    53   28   49 1
    54   28   50 1
    55   28   51 1
@<TRIPOS>MOLECULE
ZINC43283538
   40    42     0     0     0
SMALL
USER_CHARGES

@<TRIPOS>ATOM
      1 C1         -0.0187    1.5258    0.0104 C.3       1 <0>        -0.1769
      2 C2          0.0021   -0.0041    0.0020 C.3       1 <0>         0.0316
      3 H1          0.5123   -0.3556   -0.8948 H         1 <0>         0.1650
      4 C3         -1.4333   -0.5336    0.0129 C.3       1 <0>        -0.0117
      5 H2         -1.9862   -0.1019   -0.8214 H         1 <0>         0.1732
      6 C4         -2.1001   -0.1511    1.3091 C.2       1 <0>        -0.2038
      7 C5         -3.2119    0.5978    1.5082 C.2       1 <0>        -0.0625
      8 C6         -3.6468    0.8220    2.8012 C.2       1 <0>        -0.1146
      9 C7         -2.9474    0.2855    3.8321 C.2       1 <0>        -0.1158
     10 S1         -1.6346   -0.5734    2.9800 S.3       1 <0>         0.0548
     11 Br1        -3.2807    0.4090    5.6894 Br        1 <0>         0.0830
     12 S2         -1.4124   -2.3405   -0.1461 S.3       1 <0>         0.0583
     13 C8         -0.7470   -2.6194   -1.7536 C.2       1 <0>         0.1781
     14 N1         -0.3596   -1.6987   -2.6096 N.2       1 <0>        -0.3373
     15 N2          0.0759   -2.2424   -3.6885 N.2       1 <0>        -0.0228
     16 N3          0.0010   -3.5266   -3.6049 N.2       1 <0>        -0.0448
     17 N4         -0.5328   -3.8217   -2.3382 N.pl3     1 <0>        -0.3344
     18 C9         -0.8022   -5.1462   -1.7730 C.3       1 <0>         0.1378
     19 C10         0.4909   -5.9874   -1.7584 C.3       1 <0>        -0.1318
     20 C11         0.0143   -7.4223   -2.0945 C.3       1 <0>        -0.1227
     21 C12        -1.0918   -7.1765   -3.1505 C.3       1 <0>        -0.1251
     22 C13        -1.8085   -5.9023   -2.6581 C.3       1 <0>        -0.1333
     23 N5          0.7126   -0.4907    1.1921 N.4       1 <0>        -0.6402
     24 H3          1.0039    1.9031    0.0027 H         1 <0>         0.0952
     25 H4         -0.5459    1.8868   -0.8726 H         1 <0>         0.1163
     26 H5         -0.5289    1.8773    0.9072 H         1 <0>         0.0862
     27 H6         -3.7500    1.0136    0.6692 H         1 <0>         0.1617
     28 H7         -4.5297    1.4155    2.9877 H         1 <0>         0.1660
     29 H8         -1.1955   -5.0471   -0.7613 H         1 <0>         0.1186
     30 H9          1.1875   -5.6294   -2.5165 H         1 <0>         0.0873
     31 H10         0.9526   -5.9601   -0.7714 H         1 <0>         0.0826
     32 H11         0.8285   -8.0105   -2.5177 H         1 <0>         0.0837
     33 H12        -0.3969   -7.9097   -1.2105 H         1 <0>         0.0783
     34 H13        -0.6508   -7.0106   -4.1333 H         1 <0>         0.0769
     35 H14        -1.7852   -8.0171   -3.1794 H         1 <0>         0.0813
     36 H15        -2.6898   -6.1709   -2.0757 H         1 <0>         0.0901
     37 H16        -2.0964   -5.2837   -3.5082 H         1 <0>         0.0802
     38 H17         0.2403   -0.1653    2.0223 H         1 <0>         0.4171
     39 H18         0.7263   -1.4996    1.1866 H         1 <0>         0.4316
     40 H19         1.6592   -0.1414    1.1850 H         1 <0>         0.4430
@<TRIPOS>BOND
     1    1    2 1
     2    1   24 1
     3    1   25 1
     4    1   26 1
     5    2    3 1
     6    2    4 1
     7    2   23 1
     8    4    5 1
     9    4    6 1
    10    4   12 1
    11    6   10 1
    12    6    7 2
    13    7    8 1
    14    7   27 1
    15    8    9 2
    16    8   28 1
    17    9   10 1
    18    9   11 1
    19   12   13 1
    20   13   17 1
    21   13   14 2
    22   14   15 1
    23   15   16 2
    24   16   17 1
    25   17   18 1
    26   18   22 1
    27   18   19 1
    28   18   29 1
    29   19   20 1
    30   19   30 1
    31   19   31 1
    32   20   21 1
    33   20   32 1
    34   20   33 1
    35   21   22 1
    36   21   34 1
    37   21   35 1
    38   22   36 1
    39   22   37 1
    40   23   38 1
    41   23   39 1
    42   23   40 1
@<TRIPOS>MOLECULE
ZINC13992645
   62    64     0     0     0
SMALL
USER_CHARGES

@<TRIPOS>ATOM
      1 C1         -0.6897    1.8748   -0.7138 C.3       1 <0>        -0.1789
      2 C2         -0.4268    0.3627   -0.5249 C.3       1 <0>         0.0574
      3 C3         -1.7834   -0.3240   -0.4063 C.3       1 <0>        -0.1225
      4 C4         -1.6085   -1.7759    0.0394 C.3       1 <0>         0.0679
      5 C5         -0.9075   -1.7763    1.3980 C.3       1 <0>        -0.1707
      6 C6          0.4560   -1.1011    1.2924 C.3       1 <0>         0.0621
      7 N1          0.4042    0.2030    0.6554 N.4       1 <0>        -0.4899
      8 C7          1.4410   -2.0318    0.5773 C.3       1 <0>        -0.1829
      9 C8          0.9850   -0.9010    2.7316 C.3       1 <0>        -0.1801
     10 N2         -2.9326   -2.4046    0.1762 N.3       1 <0>        -0.5115
     11 C9         -2.8117   -3.8622    0.3128 C.3       1 <0>         0.0885
     12 C10        -2.2695   -4.4434   -0.9676 C.ar      1 <0>        -0.0541
     13 C11        -3.1380   -4.8355   -1.9693 C.ar      1 <0>        -0.1115
     14 C12        -2.6456   -5.3692   -3.1456 C.ar      1 <0>        -0.1015
     15 C13        -1.2787   -5.5118   -3.3229 C.ar      1 <0>         0.0844
     16 C14        -0.4045   -5.1167   -2.3148 C.ar      1 <0>         0.1019
     17 C15        -0.9045   -4.5781   -1.1401 C.ar      1 <0>        -0.1987
     18 O1          0.9378   -5.2547   -2.4841 O.3       1 <0>        -0.3022
     19 C16         1.7747   -4.8280   -1.4073 C.3       1 <0>         0.0218
     20 O2         -0.7927   -6.0370   -4.4793 O.3       1 <0>        -0.4839
     21 C17        -3.6740   -1.8296    1.3066 C.3       1 <0>         0.0936
     22 C18        -5.1332   -2.1855    1.1832 C.ar      1 <0>        -0.1437
     23 C19        -5.9796   -1.4165    0.3988 C.ar      1 <0>        -0.0511
     24 C20        -7.3143   -1.7815    0.3149 C.ar      1 <0>        -0.1701
     25 C21        -7.7541   -2.8918    1.0109 C.ar      1 <0>         0.1076
     26 N3         -6.9207   -3.5995    1.7478 N.ar      1 <0>        -0.4802
     27 C22        -5.6435   -3.2855    1.8459 C.ar      1 <0>         0.1051
     28 C23         0.2943   -0.1285   -1.7845 C.3       1 <0>        -0.1733
     29 H1          0.2591    2.3950   -0.8451 H         1 <0>         0.0831
     30 H2         -1.3130    2.0279   -1.5948 H         1 <0>         0.1076
     31 H3         -1.2007    2.2674    0.1654 H         1 <0>         0.0811
     32 H4         -2.3987    0.2072    0.3238 H         1 <0>         0.0898
     33 H5         -2.2893   -0.3014   -1.3746 H         1 <0>         0.1179
     34 H6         -1.0261   -2.3313   -0.6903 H         1 <0>         0.1103
     35 H7         -1.5243   -1.2410    2.1238 H         1 <0>         0.0953
     36 H8         -0.7789   -2.8065    1.7385 H         1 <0>         0.1082
     37 H9          1.3607    0.4809    0.4147 H         1 <0>         0.4255
     38 H10         1.0700   -2.2538   -0.4233 H         1 <0>         0.0827
     39 H11         2.4135   -1.5448    0.5044 H         1 <0>         0.0865
     40 H12         1.5403   -2.9588    1.1420 H         1 <0>         0.1040
     41 H13         1.0755   -1.8696    3.2234 H         1 <0>         0.1056
     42 H14         1.9619   -0.4189    2.6959 H         1 <0>         0.0835
     43 H15         0.2903   -0.2735    3.2900 H         1 <0>         0.0821
     44 H16        -2.1334   -4.0952    1.1335 H         1 <0>         0.0504
     45 H17        -3.7926   -4.2904    0.5194 H         1 <0>         0.0973
     46 H18        -4.2036   -4.7249   -1.8323 H         1 <0>         0.1301
     47 H19        -3.3262   -5.6753   -3.9262 H         1 <0>         0.1408
     48 H20        -0.2280   -4.2672   -0.3577 H         1 <0>         0.1243
     49 H21         1.5324   -5.3986   -0.5107 H         1 <0>         0.0567
     50 H22         2.8192   -4.9929   -1.6716 H         1 <0>         0.1050
     51 H23         1.6109   -3.7671   -1.2181 H         1 <0>         0.0470
     52 H24        -0.6132   -5.3794   -5.1651 H         1 <0>         0.3903
     53 H25        -3.2801   -2.2299    2.2407 H         1 <0>         0.0543
     54 H26        -3.5627   -0.7453    1.3003 H         1 <0>         0.0878
     55 H27        -5.6078   -0.5537   -0.1338 H         1 <0>         0.1319
     56 H28        -8.0020   -1.2053   -0.2865 H         1 <0>         0.1385
     57 H29        -8.7924   -3.1827    0.9508 H         1 <0>         0.1595
     58 H30        -4.9899   -3.8923    2.4550 H         1 <0>         0.1489
     59 H31         1.2327    0.4137   -1.9008 H         1 <0>         0.0821
     60 H32         0.4998   -1.1950   -1.6929 H         1 <0>         0.0782
     61 H33        -0.3368    0.0464   -2.6559 H         1 <0>         0.1059
     62 H34         0.1023    0.8889    1.3546 H         1 <0>         0.4240
@<TRIPOS>BOND
     1    1    2 1
     2    1   29 1
     3    1   30 1
     4    1   31 1
     5    2    7 1
     6    2    3 1
     7    2   28 1
     8    3    4 1
     9    3   32 1
    10    3   33 1
    11    4    5 1
    12    4   10 1
    13    4   34 1
    14    5    6 1
    15    5   35 1
    16    5   36 1
    17    6    7 1
    18    6    8 1
    19    6    9 1
    20    7   37 1
    21    7   62 1
    22    8   38 1
    23    8   39 1
    24    8   40 1
    25    9   41 1
    26    9   42 1
    27    9   43 1
    28   10   11 1
    29   10   21 1
    30   11   12 1
    31   11   44 1
    32   11   45 1
    33   12   17 ar
    34   12   13 ar
    35   13   14 ar
    36   13   46 1
    37   14   15 ar
    38   14   47 1
    39   15   16 ar
    40   15   20 1
    41   16   17 ar
    42   16   18 1
    43   17   48 1
    44   18   19 1
    45   19   49 1
    46   19   50 1
    47   19   51 1
    48   20   52 1
    49   21   22 1
    50   21   53 1
    51   21   54 1
    52   22   27 ar
    53   22   23 ar
    54   23   24 ar
    55   23   55 1
    56   24   25 ar
    57   24   56 1
    58   25   26 ar
    59   25   57 1
    60   26   27 ar
    61   27   58 1
    62   28   59 1
    63   28   60 1
    64   28   61 1
@<TRIPOS>MOLECULE
ZINC63389915
   46    49     0     0     0
SMALL
USER_CHARGES

@<TRIPOS>ATOM
      1 C1          0.4232    1.1748    0.8155 C.2       1 <0>        -0.1912
      2 C2          1.7940    1.4991    0.7905 C.2       1 <0>        -0.1855
      3 C3          2.4724    0.3645    0.5239 C.2       1 <0>        -0.0081
      4 N1          1.5705   -0.6483    0.3835 N.pl3     1 <0>        -0.4533
      5 C4          0.3160   -0.1455    0.5633 C.2       1 <0>        -0.0023
      6 C5          1.8957   -2.0459    0.0877 C.3       1 <0>         0.4009
      7 H1          2.8773   -2.3113    0.4801 H         1 <0>         0.1586
      8 N2          0.8496   -2.9590    0.5989 N.pl3     1 <0>        -0.6959
      9 C6         -0.1858   -3.2221   -0.2253 C.2       1 <0>         0.2521
     10 C7          0.0596   -3.0443   -1.7151 C.3       1 <0>        -0.0525
     11 S1          1.7843   -2.3891   -1.7215 S.3       1 <0>        -0.2415
     12 C8         -1.3823   -3.6244    0.2502 C.2       1 <0>        -0.3448
     13 C9         -1.6198   -3.6415    1.6444 C.2       1 <0>         0.5725
     14 O1         -0.7852   -3.1934    2.4097 O.2       1 <0>        -0.5622
     15 N3         -2.7697   -4.1537    2.1259 N.am      1 <0>        -0.7361
     16 C10        -3.0156   -4.1713    3.5700 C.3       1 <0>         0.1294
     17 C11        -4.3826   -4.8004    3.8469 C.3       1 <0>        -0.1081
     18 C12        -4.6356   -4.8186    5.3324 C.2       1 <0>         0.0824
     19 C13        -5.3207   -3.9009    6.0518 C.ar      1 <0>        -0.1635
     20 C14        -6.0084   -2.6584    5.6808 C.ar      1 <0>        -0.0057
     21 C15        -6.6196   -1.9331    6.6461 C.ar      1 <0>        -0.0755
     22 C16        -6.6116   -2.3385    7.9891 C.ar      1 <0>         0.0538
     23 C17        -6.0009   -3.4675    8.4060 C.ar      1 <0>        -0.1889
     24 C18        -5.3275   -4.3065    7.4756 C.ar      1 <0>         0.3295
     25 N4         -4.6720   -5.4312    7.6302 N.pl3     1 <0>        -0.5780
     26 C19        -4.1804   -5.8701    6.3194 C.3       1 <0>         0.0594
     27 Cl1        -7.4340   -0.4629    6.2114 Cl        1 <0>        -0.0129
     28 H2         -0.3917    1.8574    1.0063 H         1 <0>         0.1365
     29 H3          2.2228    2.4767    0.9540 H         1 <0>         0.1406
     30 H4          3.5450    0.2738    0.4367 H         1 <0>         0.1652
     31 H5         -0.6047   -0.7077    0.5125 H         1 <0>         0.1519
     32 H6          0.0014   -3.9988   -2.2383 H         1 <0>         0.1404
     33 H7         -0.6355   -2.3220   -2.1431 H         1 <0>         0.1306
     34 H8         -2.1590   -3.9335   -0.4336 H         1 <0>         0.1425
     35 H9          0.9057   -3.3503    1.4847 H         1 <0>         0.4323
     36 H10        -3.4344   -4.5106    1.5163 H         1 <0>         0.4064
     37 H11        -2.2397   -4.7565    4.0636 H         1 <0>         0.0757
     38 H12        -3.0008   -3.1512    3.9536 H         1 <0>         0.0769
     39 H13        -5.1585   -4.2153    3.3533 H         1 <0>         0.1175
     40 H14        -4.3975   -5.8206    3.4633 H         1 <0>         0.1214
     41 H15        -6.0260   -2.3277    4.6528 H         1 <0>         0.1705
     42 H16        -7.1144   -1.7217    8.7193 H         1 <0>         0.1710
     43 H17        -6.0233   -3.7352    9.4521 H         1 <0>         0.1712
     44 H18        -4.6079   -6.8387    6.0604 H         1 <0>         0.1798
     45 H19        -3.0920   -5.9297    6.3297 H         1 <0>         0.1785
     46 H20        -4.5379   -5.8973    8.4702 H         1 <0>         0.4584
@<TRIPOS>BOND
     1    1    5 2
     2    1    2 1
     3    1   28 1
     4    2    3 2
     5    2   29 1
     6    3    4 1
     7    3   30 1
     8    4    5 1
     9    4    6 1
    10    5   31 1
    11    6    7 1
    12    6   11 1
    13    6    8 1
    14    8    9 1
    15    8   35 1
    16    9   12 2
    17    9   10 1
    18   10   11 1
    19   10   32 1
    20   10   33 1
    21   12   13 1
    22   12   34 1
    23   13   14 2
    24   13   15 am
    25   15   16 1
    26   15   36 1
    27   16   17 1
    28   16   37 1
    29   16   38 1
    30   17   18 1
    31   17   39 1
    32   17   40 1
    33   18   26 1
    34   18   19 2
    35   19   24 ar
    36   19   20 ar
    37   20   21 ar
    38   20   41 1
    39   21   22 ar
    40   21   27 1
    41   22   23 ar
    42   22   42 1
    43   23   24 ar
    44   23   43 1
    45   24   25 2
    46   25   26 1
    47   25   46 1
    48   26   44 1
    49   26   45 1
@<TRIPOS>MOLECULE
ZINC65966554
   51    54     0     0     0
SMALL
USER_CHARGES

@<TRIPOS>ATOM
      1 C1         -0.1944    1.5353   -0.1939 C.3       1 <0>        -0.1842
      2 C2         -0.0099    0.0270   -0.0157 C.3       1 <0>         0.0070
      3 C3          0.6607   -0.2444    1.3063 C.2       1 <0>         0.5102
      4 O1          0.0201   -0.7033    2.2283 O.2       1 <0>        -0.5046
      5 N1          1.9722    0.0229    1.4641 N.am      1 <0>        -0.6384
      6 C4          2.6212   -0.3332    2.6524 C.ar      1 <0>         0.0862
      7 C5          1.9385   -0.3069    3.8652 C.ar      1 <0>        -0.0595
      8 C6          2.6235   -0.6679    5.0143 C.ar      1 <0>        -0.1466
      9 C7          3.9515   -1.0394    4.9208 C.ar      1 <0>         0.1234
     10 N2          4.5710   -1.0541    3.7564 N.ar      1 <0>        -0.4537
     11 C8          3.9552   -0.7236    2.6378 C.ar      1 <0>         0.1627
     12 Cl1         4.8210   -0.7700    1.1339 Cl        1 <0>        -0.0187
     13 N3         -1.3217   -0.6335   -0.0441 N.4       1 <0>        -0.3699
     14 C9         -1.1364   -2.0887    0.0076 C.3       1 <0>        -0.0131
     15 C10        -2.5011   -2.7789    0.0601 C.3       1 <0>        -0.1321
     16 C11        -3.3026   -2.4090   -1.1912 C.3       1 <0>        -0.0320
     17 C12        -3.4259   -0.8848   -1.2743 C.3       1 <0>        -0.1378
     18 C13        -2.0270   -0.2648   -1.2774 C.3       1 <0>        -0.0116
     19 C14        -4.6768   -3.0220   -1.1090 C.2       1 <0>         0.0631
     20 C15        -5.3867   -3.1734    0.0202 C.2       1 <0>        -0.1823
     21 C16        -6.6543   -3.8061   -0.3525 C.ar      1 <0>        -0.1129
     22 C17        -7.7837   -4.2111    0.3617 C.ar      1 <0>        -0.0709
     23 C18        -8.8323   -4.7877   -0.2974 C.ar      1 <0>        -0.1393
     24 C19        -8.7841   -4.9745   -1.6723 C.ar      1 <0>        -0.0880
     25 C20        -7.6798   -4.5824   -2.3964 C.ar      1 <0>        -0.1321
     26 C21        -6.6005   -3.9930   -1.7457 C.ar      1 <0>         0.1023
     27 N4         -5.3882   -3.5014   -2.1750 N.pl3     1 <0>        -0.5905
     28 H1         -5.0830   -3.4972   -3.0957 H         1 <0>         0.4146
     29 H2          0.7790    2.0254   -0.1729 H         1 <0>         0.1123
     30 H3         -0.6794    1.7316   -1.1502 H         1 <0>         0.1042
     31 H4         -0.8142    1.9235    0.6143 H         1 <0>         0.0933
     32 H5          0.6099   -0.3613   -0.8240 H         1 <0>         0.1657
     33 H6          2.4665    0.4621    0.7543 H         1 <0>         0.4233
     34 H7          0.9005   -0.0122    3.9095 H         1 <0>         0.1629
     35 H8          2.1253   -0.6587    5.9725 H         1 <0>         0.1561
     36 H9          4.4897   -1.3212    5.8137 H         1 <0>         0.1778
     37 H10        -0.5973   -2.4176   -0.8808 H         1 <0>         0.1301
     38 H11        -0.5630   -2.3501    0.8970 H         1 <0>         0.1389
     39 H12        -2.3613   -3.8593    0.0967 H         1 <0>         0.1193
     40 H13        -3.0410   -2.4508    0.9484 H         1 <0>         0.0989
     41 H14        -2.7883   -2.7819   -2.0770 H         1 <0>         0.0973
     42 H15        -3.9473   -0.6113   -2.1917 H         1 <0>         0.1161
     43 H16        -3.9850   -0.5174   -0.4138 H         1 <0>         0.0979
     44 H17        -2.1111    0.8204   -1.3367 H         1 <0>         0.1403
     45 H18        -1.4689   -0.6326   -2.1384 H         1 <0>         0.1338
     46 H19        -5.0814   -2.8837    1.0148 H         1 <0>         0.1447
     47 H20        -7.8280   -4.0693    1.4315 H         1 <0>         0.1243
     48 H21        -9.7055   -5.1012    0.2555 H         1 <0>         0.1276
     49 H22        -9.6208   -5.4321   -2.1792 H         1 <0>         0.1304
     50 H23        -7.6518   -4.7322   -3.4655 H         1 <0>         0.1226
     51 H24        -1.8637   -0.3370    0.7536 H         1 <0>         0.4309
@<TRIPOS>BOND
     1    1    2 1
     2    1   29 1
     3    1   30 1
     4    1   31 1
     5    2    3 1
     6    2   13 1
     7    2   32 1
     8    3    4 2
     9    3    5 am
    10    5    6 1
    11    5   33 1
    12    6   11 ar
    13    6    7 ar
    14    7    8 ar
    15    7   34 1
    16    8    9 ar
    17    8   35 1
    18    9   10 ar
    19    9   36 1
    20   10   11 ar
    21   11   12 1
    22   13   18 1
    23   13   14 1
    24   13   51 1
    25   14   15 1
    26   14   37 1
    27   14   38 1
    28   15   16 1
    29   15   39 1
    30   15   40 1
    31   16   17 1
    32   16   19 1
    33   16   41 1
    34   17   18 1
    35   17   42 1
    36   17   43 1
    37   18   44 1
    38   18   45 1
    39   19   27 1
    40   19   20 2
    41   20   21 1
    42   20   46 1
    43   21   26 ar
    44   21   22 ar
    45   22   23 ar
    46   22   47 1
    47   23   24 ar
    48   23   48 1
    49   24   25 ar
    50   24   49 1
    51   25   26 ar
    52   25   50 1
    53   26   27 1
    54   27   28 1
@<TRIPOS>MOLECULE
ZINC10086128
   60    62     0     0     0
SMALL
USER_CHARGES
N'-[2-dimethylamino-2-(1-naphthyl)ethyl]-N-(2,4,6-trimethylphenyl)-oxamide
@<TRIPOS>ATOM
      1 C1         -2.6480   -0.0912  -10.8718 C.3       1 <0>        -0.1207
      2 C2         -2.8513    0.4440   -9.4778 C.ar      1 <0>        -0.0648
      3 C3         -3.9886    1.1709   -9.1769 C.ar      1 <0>        -0.1167
      4 C4         -4.1780    1.6628   -7.9005 C.ar      1 <0>        -0.0741
      5 C5         -3.2246    1.4263   -6.9180 C.ar      1 <0>         0.1043
      6 C6         -2.0807    0.7002   -7.2251 C.ar      1 <0>        -0.0574
      7 C7         -1.9002    0.2067   -8.5022 C.ar      1 <0>        -0.1176
      8 C8         -1.0405    0.4469   -6.1645 C.3       1 <0>        -0.1097
      9 N1         -3.4131    1.9225   -5.6255 N.am      1 <0>        -0.6323
     10 C9         -3.4203    1.0791   -4.5743 C.2       1 <0>         0.5053
     11 O1         -3.1918   -0.1011   -4.7416 O.2       1 <0>        -0.4995
     12 C10        -3.7095    1.5968   -3.2035 C.2       1 <0>         0.5147
     13 O2         -3.9380    2.7769   -3.0363 O.2       1 <0>        -0.4837
     14 N2         -3.7168    0.7534   -2.1523 N.am      1 <0>        -0.7279
     15 C11        -4.0005    1.2611   -0.8077 C.3       1 <0>         0.0989
     16 C12        -3.8612    0.1243    0.2067 C.3       1 <0>         0.0728
     17 H1         -2.8423   -0.2620    0.1819 H         1 <0>         0.1547
     18 C13        -4.1684    0.6430    1.5878 C.ar      1 <0>        -0.1292
     19 C14        -5.3887    0.4177    2.1476 C.ar      1 <0>        -0.1063
     20 C15        -5.6907    0.8891    3.4235 C.ar      1 <0>        -0.1218
     21 C16        -4.7743    1.5886    4.1474 C.ar      1 <0>        -0.0609
     22 C17        -3.5040    1.8408    3.6027 C.ar      1 <0>        -0.0479
     23 C18        -3.1949    1.3566    2.3069 C.ar      1 <0>        -0.0252
     24 C19        -1.9221    1.6039    1.7644 C.ar      1 <0>        -0.1362
     25 C20        -1.0042    2.2984    2.4904 C.ar      1 <0>        -0.0824
     26 C21        -1.3065    2.7705    3.7665 C.ar      1 <0>        -0.1070
     27 C22        -2.5317    2.5589    4.3199 C.ar      1 <0>        -0.0922
     28 C23        -5.9508   -0.4304   -0.8836 C.3       1 <0>        -0.0688
     29 C24        -4.1278   -2.0240   -0.8780 C.3       1 <0>        -0.0496
     30 C25        -5.4178    2.4548   -7.5735 C.3       1 <0>        -0.1181
     31 H2         -2.1142    0.6470  -11.4702 H         1 <0>         0.0766
     32 H3         -2.0660   -1.0117  -10.8263 H         1 <0>         0.0702
     33 H4         -3.6169   -0.2961  -11.3271 H         1 <0>         0.0705
     34 H5         -4.7294    1.3543   -9.9411 H         1 <0>         0.1310
     35 H6         -1.0129   -0.3610   -8.7407 H         1 <0>         0.1296
     36 H7         -1.2066   -0.5342   -5.7196 H         1 <0>         0.0827
     37 H8         -0.0480    0.4787   -6.6140 H         1 <0>         0.0692
     38 H9         -1.1146    1.2130   -5.3927 H         1 <0>         0.0524
     39 H10        -3.5387    2.8740   -5.4848 H         1 <0>         0.4219
     40 H11        -3.5342   -0.1899   -2.2860 H         1 <0>         0.4072
     41 H12        -5.0163    1.6550   -0.7749 H         1 <0>         0.1073
     42 H13        -3.2949    2.0551   -0.5628 H         1 <0>         0.1237
     43 H14        -6.1337   -0.1351    1.5946 H         1 <0>         0.1194
     44 H15        -6.6666    0.6969    3.8443 H         1 <0>         0.1387
     45 H16        -5.0226    1.9482    5.1350 H         1 <0>         0.1418
     46 H17        -1.6737    1.2442    0.7768 H         1 <0>         0.1254
     47 H18        -0.0268    2.4870    2.0712 H         1 <0>         0.1334
     48 H19        -0.5599    3.3193    4.3213 H         1 <0>         0.1353
     49 H20        -2.7518    2.9307    5.3097 H         1 <0>         0.1389
     50 H21        -5.5997    0.0537   -1.7949 H         1 <0>         0.1322
     51 H22        -6.6187   -1.2519   -1.1428 H         1 <0>         0.1320
     52 H23        -6.4868    0.2941   -0.2706 H         1 <0>         0.1269
     53 H24        -3.3887   -2.5039   -0.2364 H         1 <0>         0.1313
     54 H25        -4.8637   -2.7612   -1.1990 H         1 <0>         0.1350
     55 H26        -3.6312   -1.6020   -1.7517 H         1 <0>         0.1179
     56 H27        -5.2316    3.5131   -7.7566 H         1 <0>         0.0773
     57 H28        -6.2413    2.1166   -8.2024 H         1 <0>         0.0749
     58 H29        -5.6770    2.3076   -6.5251 H         1 <0>         0.0617
     59 N3         -4.8112   -0.9636   -0.1078 N.4       1 <0>        -0.4003
     60 H30        -5.1632   -1.3632    0.7700 H         1 <0>         0.4350
@<TRIPOS>BOND
     1    1    2 1
     2    1   31 1
     3    1   32 1
     4    1   33 1
     5    2    7 ar
     6    2    3 ar
     7    3    4 ar
     8    3   34 1
     9    4    5 ar
    10    4   30 1
    11    5    6 ar
    12    5    9 1
    13    6    7 ar
    14    6    8 1
    15    7   35 1
    16    8   36 1
    17    8   37 1
    18    8   38 1
    19    9   10 am
    20    9   39 1
    21   10   11 2
    22   10   12 1
    23   12   13 2
    24   12   14 am
    25   14   15 1
    26   14   40 1
    27   15   16 1
    28   15   41 1
    29   15   42 1
    30   16   17 1
    31   16   18 1
    32   16   59 1
    33   18   23 ar
    34   18   19 ar
    35   19   20 ar
    36   19   43 1
    37   20   21 ar
    38   20   44 1
    39   21   22 ar
    40   21   45 1
    41   22   27 ar
    42   22   23 ar
    43   23   24 ar
    44   24   25 ar
    45   24   46 1
    46   25   26 ar
    47   25   47 1
    48   26   27 ar
    49   26   48 1
    50   27   49 1
    51   28   50 1
    52   28   51 1
    53   28   52 1
    54   28   59 1
    55   29   53 1
    56   29   54 1
    57   29   55 1
    58   29   59 1
    59   30   56 1
    60   30   57 1
    61   30   58 1
    62   59   60 1
@<TRIPOS>MOLECULE
ZINC12602643
   61    64     0     0     0
SMALL
USER_CHARGES
1-(3-methylsulfanylphenyl)-3-[[(2R,4S,5S)-5-(thiomorpholinomethyl)quinuclidin-2-yl]methyl]urea
@<TRIPOS>ATOM
      1 C1         -1.6809    1.5983    9.9950 C.3       1 <0>        -0.1494
      2 S1         -1.5529    1.2553    8.2183 S.3       1 <0>        -0.1089
      3 C2         -1.9743   -0.4501    8.0821 C.ar      1 <0>        -0.0645
      4 C3         -2.3001   -1.1798    9.2200 C.ar      1 <0>        -0.1452
      5 C4         -2.6300   -2.5167    9.1135 C.ar      1 <0>        -0.0773
      6 C5         -2.6375   -3.1335    7.8768 C.ar      1 <0>        -0.1495
      7 C6         -2.3135   -2.4102    6.7358 C.ar      1 <0>         0.1732
      8 C7         -1.9769   -1.0683    6.8390 C.ar      1 <0>        -0.1015
      9 N1         -2.3211   -3.0362    5.4842 N.am      1 <0>        -0.6905
     10 C8         -2.7172   -2.3535    4.3917 C.2       1 <0>         0.7111
     11 O1         -2.9850   -1.1706    4.4780 O.2       1 <0>        -0.5545
     12 N2         -2.8164   -2.9819    3.2036 N.am      1 <0>        -0.7697
     13 C9         -3.2469   -2.2399    2.0161 C.3       1 <0>         0.1164
     14 C10        -3.2747   -3.1801    0.8094 C.3       1 <0>         0.0298
     15 H1         -4.0123   -3.9808    0.9667 H         1 <0>         0.1428
     16 C11        -3.6011   -2.3783   -0.4603 C.3       1 <0>        -0.1341
     17 C12        -2.4375   -2.5242   -1.4491 C.3       1 <0>        -0.0946
     18 H2         -2.6432   -1.9580   -2.3695 H         1 <0>         0.1201
     19 C13        -2.2532   -4.0134   -1.7674 C.3       1 <0>        -0.1395
     20 C14        -1.9653   -4.7681   -0.4665 C.3       1 <0>        -0.0023
     21 N3         -1.9606   -3.8197    0.6559 N.4       1 <0>        -0.3950
     22 C15        -0.9006   -2.8155    0.4940 C.3       1 <0>         0.0008
     23 C16        -1.1587   -2.0053   -0.7796 C.3       1 <0>        -0.0960
     24 H3         -0.3066   -2.1113   -1.4671 H         1 <0>         0.1092
     25 C17        -1.3308   -0.5278   -0.4213 C.3       1 <0>         0.0486
     26 N4         -0.0791   -0.0135    0.1501 N.3       1 <0>        -0.5540
     27 C18         0.9209    0.2139   -0.8957 C.3       1 <0>         0.0502
     28 C19         2.3178    0.2985   -0.2697 C.3       1 <0>        -0.0820
     29 S2          2.3455    1.7086    0.8803 S.3       1 <0>        -0.2544
     30 C20         0.8651    1.4238    1.8997 C.3       1 <0>        -0.0792
     31 C21        -0.3247    1.1789    0.9644 C.3       1 <0>         0.0538
     32 H4         -1.4329    2.6533   10.1835 H         1 <0>         0.1144
     33 H5         -0.9798    0.9529   10.5445 H         1 <0>         0.0874
     34 H6         -2.7077    1.3967   10.3343 H         1 <0>         0.0873
     35 H7         -2.2948   -0.7008   10.1879 H         1 <0>         0.1274
     36 H8         -2.8823   -3.0815    9.9988 H         1 <0>         0.1332
     37 H9         -2.8960   -4.1790    7.7972 H         1 <0>         0.1282
     38 H10        -1.7203   -0.5051    5.9539 H         1 <0>         0.1426
     39 H11        -2.0038   -4.0854    5.3921 H         1 <0>         0.4299
     40 H12        -2.5741   -4.0520    3.1256 H         1 <0>         0.4037
     41 H13        -4.2537   -1.8301    2.1848 H         1 <0>         0.1113
     42 H14        -2.5435   -1.4165    1.8232 H         1 <0>         0.0966
     43 H15        -4.5255   -2.7674   -0.9121 H         1 <0>         0.1089
     44 H16        -3.7383   -1.3185   -0.1996 H         1 <0>         0.1049
     45 H17        -3.1712   -4.4060   -2.2291 H         1 <0>         0.1027
     46 H18        -1.4105   -4.1381   -2.4633 H         1 <0>         0.1012
     47 H19        -2.7442   -5.5274   -0.3031 H         1 <0>         0.1309
     48 H20        -0.9836   -5.2592   -0.5371 H         1 <0>         0.1322
     49 H21        -0.8976   -2.1421    1.3638 H         1 <0>         0.1397
     50 H22         0.0739   -3.3200    0.4175 H         1 <0>         0.1303
     51 H23        -1.5816    0.0425   -1.3279 H         1 <0>         0.0611
     52 H24        -2.1411   -0.4210    0.3149 H         1 <0>         0.0840
     53 H25         0.8947   -0.6178   -1.6151 H         1 <0>         0.0853
     54 H26         0.6985    1.1567   -1.4170 H         1 <0>         0.0579
     55 H27         2.5338   -0.6340    0.2722 H         1 <0>         0.0890
     56 H28         3.0666    0.4438   -1.0623 H         1 <0>         0.1127
     57 H29         1.0260    0.5459    2.5426 H         1 <0>         0.0897
     58 H30         0.6760    2.3077    2.5266 H         1 <0>         0.1145
     59 H31        -0.4559    2.0511    0.3071 H         1 <0>         0.0581
     60 H32        -1.2347    1.0320    1.5647 H         1 <0>         0.0878
     61 H33        -1.7501   -4.3853    1.5756 H         1 <0>         0.4331
@<TRIPOS>BOND
     1    1    2 1
     2    1   32 1
     3    1   33 1
     4    1   34 1
     5    2    3 1
     6    3    8 ar
     7    3    4 ar
     8    4    5 ar
     9    4   35 1
    10    5    6 ar
    11    5   36 1
    12    6    7 ar
    13    6   37 1
    14    7    8 ar
    15    7    9 1
    16    8   38 1
    17    9   10 am
    18    9   39 1
    19   10   11 2
    20   10   12 am
    21   12   13 1
    22   12   40 1
    23   13   14 1
    24   13   41 1
    25   13   42 1
    26   14   15 1
    27   14   21 1
    28   14   16 1
    29   16   17 1
    30   16   43 1
    31   16   44 1
    32   17   18 1
    33   17   23 1
    34   17   19 1
    35   19   20 1
    36   19   45 1
    37   19   46 1
    38   20   21 1
    39   20   47 1
    40   20   48 1
    41   21   22 1
    42   21   61 1
    43   22   23 1
    44   22   49 1
    45   22   50 1
    46   23   24 1
    47   23   25 1
    48   25   26 1
    49   25   51 1
    50   25   52 1
    51   26   31 1
    52   26   27 1
    53   27   28 1
    54   27   53 1
    55   27   54 1
    56   28   29 1
    57   28   55 1
    58   28   56 1
    59   29   30 1
    60   30   31 1
    61   30   57 1
    62   30   58 1
    63   31   59 1
    64   31   60 1
@<TRIPOS>MOLECULE
ZINC39609338
   69    72     0     0     0
SMALL
USER_CHARGES

@<TRIPOS>ATOM
      1 C1          1.6634    0.0787   -5.4508 C.3       1 <0>        -0.1223
      2 C2          1.6243   -1.3833   -5.0876 C.ar      1 <0>        -0.0802
      3 C3          2.7300   -2.1817   -5.3144 C.ar      1 <0>        -0.1149
      4 C4          2.6942   -3.5226   -4.9813 C.ar      1 <0>        -0.1166
      5 C5          1.5528   -4.0654   -4.4208 C.ar      1 <0>        -0.0950
      6 C6          0.4478   -3.2671   -4.1932 C.ar      1 <0>        -0.1093
      7 C7          0.4851   -1.9248   -4.5225 C.ar      1 <0>        -0.0802
      8 C8         -0.7179   -1.0532   -4.2695 C.3       1 <0>        -0.1217
      9 C9          1.5134   -5.5277   -4.0585 C.3       1 <0>        -0.0858
     10 C10         1.9981   -5.7096   -2.6187 C.3       1 <0>         0.1211
     11 N1          1.9598   -7.1311   -2.2665 N.am      1 <0>        -0.7291
     12 C11         2.3451   -7.5318   -1.0387 C.2       1 <0>         0.5187
     13 O1          2.7236   -6.7155   -0.2255 O.2       1 <0>        -0.5185
     14 C12         2.3057   -8.9941   -0.6764 C.3       1 <0>        -0.1131
     15 H1          1.5109   -9.4991   -1.2253 H         1 <0>         0.1111
     16 C13         2.1016   -9.1659    0.8455 C.3       1 <0>         0.1132
     17 N2          2.9393  -10.3339    1.2061 N.am      1 <0>        -0.6244
     18 C14         4.1676  -10.1721    0.3919 C.3       1 <0>         0.1035
     19 C15         3.6628   -9.6552   -0.9700 C.3       1 <0>        -0.0721
     20 C16         3.4851  -10.8172   -1.9426 C.3       1 <0>        -0.1355
     21 C17         4.8548  -11.4223   -2.2631 C.3       1 <0>        -0.0109
     22 N3          5.7207  -10.3933   -2.8516 N.4       1 <0>        -0.5049
     23 C18         5.9616   -9.3234   -1.8760 C.3       1 <0>        -0.0074
     24 C19         4.6387   -8.6298   -1.5389 C.3       1 <0>        -0.1479
     25 C20         2.6499  -11.3205    2.0776 C.2       1 <0>         0.5392
     26 O2          1.5620  -11.3574    2.6124 O.2       1 <0>        -0.5142
     27 C21         3.6781  -12.3778    2.3874 C.3       1 <0>        -0.0965
     28 H2          4.2664  -12.5896    1.4946 H         1 <0>         0.0865
     29 C22         2.9759  -13.6578    2.8578 C.3       1 <0>        -0.1048
     30 C23         4.0249  -14.7637    2.9929 C.3       1 <0>        -0.0933
     31 C24         5.1977  -14.2692    3.7880 C.2       1 <0>        -0.1496
     32 C25         5.4486  -13.0188    4.0091 C.2       1 <0>        -0.1606
     33 C26         4.5996  -11.8869    3.5061 C.3       1 <0>        -0.0779
     34 H3          2.0314    0.6544   -4.6015 H         1 <0>         0.0736
     35 H4          2.3272    0.2238   -6.3031 H         1 <0>         0.0684
     36 H5          0.6598    0.4155   -5.7105 H         1 <0>         0.0714
     37 H6          3.6216   -1.7577   -5.7522 H         1 <0>         0.1236
     38 H7          3.5577   -4.1465   -5.1591 H         1 <0>         0.1179
     39 H8         -0.4439   -3.6912   -3.7557 H         1 <0>         0.1219
     40 H9         -1.3666   -1.0661   -5.1453 H         1 <0>         0.0736
     41 H10        -1.2654   -1.4313   -3.4062 H         1 <0>         0.0677
     42 H11        -0.3917   -0.0316   -4.0740 H         1 <0>         0.0718
     43 H12         0.4916   -5.8966   -4.1472 H         1 <0>         0.0801
     44 H13         2.1615   -6.0868   -4.7334 H         1 <0>         0.0757
     45 H14         3.0199   -5.3407   -2.5300 H         1 <0>         0.0731
     46 H15         1.3500   -5.1505   -1.9438 H         1 <0>         0.0754
     47 H16         1.6571   -7.7840   -2.9170 H         1 <0>         0.4001
     48 H17         2.4403   -8.2767    1.3772 H         1 <0>         0.0981
     49 H18         1.0536   -9.3667    1.0681 H         1 <0>         0.0959
     50 H19         4.8360   -9.4444    0.8520 H         1 <0>         0.0875
     51 H20         4.6727  -11.1304    0.2706 H         1 <0>         0.0853
     52 H21         2.8487  -11.5771   -1.4892 H         1 <0>         0.1188
     53 H22         3.0232  -10.4555   -2.8612 H         1 <0>         0.0976
     54 H23         5.3092  -11.7983   -1.3464 H         1 <0>         0.1321
     55 H24         4.7329  -12.2425   -2.9706 H         1 <0>         0.1405
     56 H25         6.6009  -10.8084   -3.1178 H         1 <0>         0.4344
     57 H26         6.3899   -9.7492   -0.9686 H         1 <0>         0.1333
     58 H27         6.6554   -8.5965   -2.2983 H         1 <0>         0.1396
     59 H28         4.2180   -8.1895   -2.4429 H         1 <0>         0.0976
     60 H29         4.8158   -7.8475   -0.8008 H         1 <0>         0.1264
     61 H30         2.5022  -13.4821    3.8237 H         1 <0>         0.0801
     62 H31         2.2241  -13.9534    2.1260 H         1 <0>         0.0714
     63 H32         3.5820  -15.6220    3.4981 H         1 <0>         0.0820
     64 H33         4.3620  -15.0650    2.0012 H         1 <0>         0.0735
     65 H34         5.8742  -15.0024    4.2018 H         1 <0>         0.1088
     66 H35         6.3260  -12.7732    4.5891 H         1 <0>         0.1103
     67 H36         5.2402  -11.0921    3.1239 H         1 <0>         0.0738
     68 H37         3.9965  -11.4988    4.3269 H         1 <0>         0.0833
     69 H38         5.2733  -10.0066   -3.6692 H         1 <0>         0.4284
@<TRIPOS>BOND
     1    1    2 1
     2    1   34 1
     3    1   35 1
     4    1   36 1
     5    2    7 ar
     6    2    3 ar
     7    3    4 ar
     8    3   37 1
     9    4    5 ar
    10    4   38 1
    11    5    6 ar
    12    5    9 1
    13    6    7 ar
    14    6   39 1
    15    7    8 1
    16    8   40 1
    17    8   41 1
    18    8   42 1
    19    9   10 1
    20    9   43 1
    21    9   44 1
    22   10   11 1
    23   10   45 1
    24   10   46 1
    25   11   12 am
    26   11   47 1
    27   12   13 2
    28   12   14 1
    29   14   15 1
    30   14   19 1
    31   14   16 1
    32   16   17 1
    33   16   48 1
    34   16   49 1
    35   17   18 1
    36   17   25 am
    37   18   19 1
    38   18   50 1
    39   18   51 1
    40   19   24 1
    41   19   20 1
    42   20   21 1
    43   20   52 1
    44   20   53 1
    45   21   22 1
    46   21   54 1
    47   21   55 1
    48   22   23 1
    49   22   56 1
    50   22   69 1
    51   23   24 1
    52   23   57 1
    53   23   58 1
    54   24   59 1
    55   24   60 1
    56   25   26 2
    57   25   27 1
    58   27   28 1
    59   27   33 1
    60   27   29 1
    61   29   30 1
    62   29   61 1
    63   29   62 1
    64   30   31 1
    65   30   63 1
    66   30   64 1
    67   31   32 2
    68   31   65 1
    69   32   33 1
    70   32   66 1
    71   33   67 1
    72   33   68 1
@<TRIPOS>MOLECULE
ZINC50834630
   63    65     0     0     0
SMALL
USER_CHARGES

@<TRIPOS>ATOM
      1 C1          0.3689    1.3970    0.4097 C.3       1 <0>        -0.1680
      2 C2          0.0243   -0.0287   -0.0258 C.3       1 <0>         0.1867
      3 H1         -1.0445   -0.0984   -0.2281 H         1 <0>         0.1216
      4 C3          0.3914   -0.9922    1.0732 C.ar      1 <0>        -0.1238
      5 C4          1.6800   -1.4854    1.1581 C.ar      1 <0>        -0.1122
      6 C5          2.0167   -2.3693    2.1662 C.ar      1 <0>        -0.1135
      7 C6          1.0650   -2.7596    3.0897 C.ar      1 <0>        -0.1024
      8 C7         -0.2233   -2.2657    3.0053 C.ar      1 <0>        -0.1032
      9 C8         -0.5590   -1.3785    1.9998 C.ar      1 <0>        -0.1068
     10 N1          0.7739   -0.3633   -1.2392 N.am      1 <0>        -0.6091
     11 C9          2.0187    0.0688   -1.5296 C.2       1 <0>         0.5193
     12 O1          2.6956    0.7978   -0.8359 O.2       1 <0>        -0.4318
     13 C10         2.4279   -0.5096   -2.8668 C.3       1 <0>        -0.0025
     14 H2          2.3351    0.2428   -3.6501 H         1 <0>         0.1782
     15 N2          1.4770   -1.6224   -3.1046 N.4       1 <0>        -0.5160
     16 C11         0.2900   -1.2240   -2.3219 C.3       1 <0>         0.2868
     17 C12        -0.3912   -2.4645   -1.7470 C.3       1 <0>        -0.1563
     18 C13        -1.6008   -2.0376   -0.9087 C.3       1 <0>         0.0729
     19 N3         -2.4707   -1.1875   -1.7329 N.pl3     1 <0>        -0.5886
     20 C14        -1.8902   -0.0090   -2.3909 C.3       1 <0>         0.0952
     21 C15        -0.6784   -0.4531   -3.2171 C.3       1 <0>        -0.1580
     22 C16        -3.7769   -1.4836   -1.8830 C.2       1 <0>         0.5589
     23 S1         -4.4085   -2.9300   -1.2196 S.2       1 <0>        -0.6035
     24 N4         -4.5859   -0.6410   -2.5553 N.pl3     1 <0>        -0.6727
     25 C17        -6.0249   -0.9068   -2.6253 C.3       1 <0>         0.1347
     26 C18        -6.7753    0.4061   -2.8577 C.3       1 <0>        -0.1658
     27 C19        -6.3103   -1.8687   -3.7803 C.3       1 <0>        -0.1657
     28 C20         3.8629   -1.0364   -2.8028 C.3       1 <0>        -0.0977
     29 C21         4.8154    0.1165   -2.4797 C.3       1 <0>        -0.1661
     30 C22         3.9660   -2.1041   -1.7119 C.3       1 <0>        -0.1776
     31 H3          1.4107    1.4379    0.7277 H         1 <0>         0.0902
     32 H4          0.2172    2.0791   -0.4268 H         1 <0>         0.0671
     33 H5         -0.2757    1.6895    1.2386 H         1 <0>         0.0855
     34 H6          2.4235   -1.1805    0.4367 H         1 <0>         0.1147
     35 H7          3.0233   -2.7552    2.2322 H         1 <0>         0.1260
     36 H8          1.3280   -3.4507    3.8769 H         1 <0>         0.1304
     37 H9         -0.9670   -2.5709    3.7266 H         1 <0>         0.1332
     38 H10        -1.5646   -0.9898    1.9361 H         1 <0>         0.1275
     39 H11         1.2519   -1.6954   -4.0854 H         1 <0>         0.4467
     40 H12        -0.7225   -3.1080   -2.5620 H         1 <0>         0.1138
     41 H13         0.3138   -3.0078   -1.1178 H         1 <0>         0.1137
     42 H14        -2.1521   -2.9209   -0.5864 H         1 <0>         0.1518
     43 H15        -1.2620   -1.4775   -0.0371 H         1 <0>         0.1197
     44 H16        -2.6325    0.4462   -3.0465 H         1 <0>         0.1046
     45 H17        -1.5741    0.7119   -1.6369 H         1 <0>         0.0988
     46 H18        -0.1762    0.4236   -3.6261 H         1 <0>         0.1117
     47 H19        -1.0101   -1.0960   -4.0325 H         1 <0>         0.1136
     48 H20        -4.2154    0.1414   -2.9929 H         1 <0>         0.3935
     49 H21        -6.3576   -1.3546   -1.6889 H         1 <0>         0.1167
     50 H22        -6.4426    0.8539   -3.7941 H         1 <0>         0.0610
     51 H23        -7.8460    0.2083   -2.9098 H         1 <0>         0.0872
     52 H24        -6.5720    1.0914   -2.0348 H         1 <0>         0.0638
     53 H25        -5.7757   -2.8041   -3.6148 H         1 <0>         0.0764
     54 H26        -7.3809   -2.0665   -3.8324 H         1 <0>         0.0770
     55 H27        -5.9776   -1.4209   -4.7168 H         1 <0>         0.0522
     56 H28         4.1331   -1.4723   -3.7646 H         1 <0>         0.1099
     57 H29         4.5452    0.5524   -1.5179 H         1 <0>         0.0929
     58 H30         5.8378   -0.2588   -2.4341 H         1 <0>         0.0808
     59 H31         4.7420    0.8772   -3.2569 H         1 <0>         0.0682
     60 H32         4.9883   -2.4794   -1.6663 H         1 <0>         0.0974
     61 H33         3.6957   -1.6682   -0.7501 H         1 <0>         0.0740
     62 H34         3.2874   -2.9255   -1.9421 H         1 <0>         0.0509
     63 H35         1.8525   -2.4923   -2.7577 H         1 <0>         0.4362
@<TRIPOS>BOND
     1    1    2 1
     2    1   31 1
     3    1   32 1
     4    1   33 1
     5    2    3 1
     6    2    4 1
     7    2   10 1
     8    4    9 ar
     9    4    5 ar
    10    5    6 ar
    11    5   34 1
    12    6    7 ar
    13    6   35 1
    14    7    8 ar
    15    7   36 1
    16    8    9 ar
    17    8   37 1
    18    9   38 1
    19   10   16 1
    20   10   11 am
    21   11   12 2
    22   11   13 1
    23   13   14 1
    24   13   15 1
    25   13   28 1
    26   15   16 1
    27   15   39 1
    28   15   63 1
    29   16   21 1
    30   16   17 1
    31   17   18 1
    32   17   40 1
    33   17   41 1
    34   18   19 1
    35   18   42 1
    36   18   43 1
    37   19   20 1
    38   19   22 1
    39   20   21 1
    40   20   44 1
    41   20   45 1
    42   21   46 1
    43   21   47 1
    44   22   23 2
    45   22   24 1
    46   24   25 1
    47   24   48 1
    48   25   26 1
    49   25   27 1
    50   25   49 1
    51   26   50 1
    52   26   51 1
    53   26   52 1
    54   27   53 1
    55   27   54 1
    56   27   55 1
    57   28   29 1
    58   28   30 1
    59   28   56 1
    60   29   57 1
    61   29   58 1
    62   29   59 1
    63   30   60 1
    64   30   61 1
    65   30   62 1
@<TRIPOS>MOLECULE
ZINC57200907
   55    57     0     0     0
SMALL
USER_CHARGES

@<TRIPOS>ATOM
      1 C1         -0.0187    1.5258    0.0104 C.3       1 <0>        -0.1895
      2 C2          0.0021   -0.0041    0.0020 C.3       1 <0>        -0.0112
      3 N1         -1.3761   -0.5125    0.0124 N.4       1 <0>        -0.3854
      4 C3         -2.0510   -0.1181   -1.2299 C.3       1 <0>        -0.0059
      5 C4         -3.5107   -0.5753   -1.1892 C.3       1 <0>        -0.1556
      6 C5         -3.5589   -2.0988   -1.0417 C.3       1 <0>         0.1559
      7 C6         -2.7883   -2.5045    0.2179 C.3       1 <0>        -0.1616
      8 C7         -1.3553   -1.9759    0.1251 C.3       1 <0>        -0.0025
      9 N2         -4.9523   -2.5359   -0.9257 N.am      1 <0>        -0.7452
     10 C8         -5.2978   -3.7883   -1.2843 C.2       1 <0>         0.7063
     11 O1         -4.4529   -4.5554   -1.7042 O.2       1 <0>        -0.5823
     12 N3         -6.5797   -4.1905   -1.1775 N.am      1 <0>        -0.7382
     13 C9         -6.9552   -5.5518   -1.5674 C.3       1 <0>         0.1485
     14 C10        -8.4567   -5.7489   -1.3495 C.3       1 <0>        -0.1159
     15 H1         -9.0289   -4.9791   -1.8675 H         1 <0>         0.0944
     16 C11        -8.8006   -5.7740    0.1632 C.3       1 <0>        -0.1260
     17 C12       -10.0902   -6.6204    0.2105 C.3       1 <0>         0.1115
     18 N4        -10.1182   -7.4416   -1.0086 N.pl3     1 <0>        -0.6342
     19 C13        -8.9012   -7.1647   -1.7940 C.3       1 <0>         0.1215
     20 C14       -11.1303   -8.3369   -1.3643 C.ar      1 <0>         0.2480
     21 C15       -11.0350   -9.0613   -2.5456 C.ar      1 <0>        -0.1903
     22 C16       -12.0369   -9.9455   -2.8946 C.ar      1 <0>        -0.0398
     23 C17       -13.1350  -10.1098   -2.0689 C.ar      1 <0>        -0.1471
     24 C18       -13.2326   -9.3896   -0.8916 C.ar      1 <0>        -0.0397
     25 C19       -12.2308   -8.5085   -0.5344 C.ar      1 <0>        -0.1891
     26 Br1       -14.5053  -11.3205   -2.5509 Br        1 <0>        -0.0551
     27 H2          1.0039    1.9031    0.0027 H         1 <0>         0.1069
     28 H3         -0.5459    1.8868   -0.8726 H         1 <0>         0.0804
     29 H4         -0.5289    1.8773    0.9072 H         1 <0>         0.0803
     30 H5          0.5123   -0.3556   -0.8948 H         1 <0>         0.1300
     31 H6          0.5293   -0.3651    0.8851 H         1 <0>         0.1315
     32 H7         -2.0130    0.9661   -1.3351 H         1 <0>         0.1378
     33 H8         -1.5489   -0.5823   -2.0788 H         1 <0>         0.1331
     34 H9         -4.0138   -0.1114   -0.3408 H         1 <0>         0.0938
     35 H10        -4.0095   -0.2831   -2.1132 H         1 <0>         0.1194
     36 H11        -3.1012   -2.5641   -1.9147 H         1 <0>         0.1061
     37 H12        -3.2764   -2.0807    1.0955 H         1 <0>         0.0892
     38 H13        -2.7707   -3.5913    0.2997 H         1 <0>         0.1181
     39 H14        -0.8680   -2.4005   -0.7527 H         1 <0>         0.1323
     40 H15        -0.8038   -2.2632    1.0203 H         1 <0>         0.1341
     41 H16        -5.6263   -1.9240   -0.5907 H         1 <0>         0.4017
     42 H17        -7.2537   -3.5786   -0.8426 H         1 <0>         0.3993
     43 H18        -6.7173   -5.7071   -2.6197 H         1 <0>         0.0754
     44 H19        -6.4028   -6.2691   -0.9603 H         1 <0>         0.0749
     45 H20        -8.0037   -6.2532    0.7320 H         1 <0>         0.0804
     46 H21        -8.9873   -4.7658    0.5331 H         1 <0>         0.0818
     47 H22       -10.0794   -7.2635    1.0905 H         1 <0>         0.0661
     48 H23       -10.9619   -5.9666    0.2372 H         1 <0>         0.0651
     49 H24        -9.1268   -7.1741   -2.8604 H         1 <0>         0.0784
     50 H25        -8.1264   -7.8956   -1.5628 H         1 <0>         0.0692
     51 H26       -10.1785   -8.9329   -3.1908 H         1 <0>         0.1278
     52 H27       -11.9634  -10.5089   -3.8130 H         1 <0>         0.1330
     53 H28       -14.0910   -9.5196   -0.2492 H         1 <0>         0.1330
     54 H29       -12.3054   -7.9500    0.3870 H         1 <0>         0.1273
     55 H30        -1.8714   -0.1226    0.8003 H         1 <0>         0.4220
@<TRIPOS>BOND
     1    1    2 1
     2    1   27 1
     3    1   28 1
     4    1   29 1
     5    2    3 1
     6    2   30 1
     7    2   31 1
     8    3    8 1
     9    3    4 1
    10    3   55 1
    11    4    5 1
    12    4   32 1
    13    4   33 1
    14    5    6 1
    15    5   34 1
    16    5   35 1
    17    6    7 1
    18    6    9 1
    19    6   36 1
    20    7    8 1
    21    7   37 1
    22    7   38 1
    23    8   39 1
    24    8   40 1
    25    9   10 am
    26    9   41 1
    27   10   11 2
    28   10   12 am
    29   12   13 1
    30   12   42 1
    31   13   14 1
    32   13   43 1
    33   13   44 1
    34   14   15 1
    35   14   19 1
    36   14   16 1
    37   16   17 1
    38   16   45 1
    39   16   46 1
    40   17   18 1
    41   17   47 1
    42   17   48 1
    43   18   19 1
    44   18   20 1
    45   19   49 1
    46   19   50 1
    47   20   25 ar
    48   20   21 ar
    49   21   22 ar
    50   21   51 1
    51   22   23 ar
    52   22   52 1
    53   23   24 ar
    54   23   26 1
    55   24   25 ar
    56   24   53 1
    57   25   54 1
@<TRIPOS>MOLECULE
ZINC05077734
   54    56     0     0     0
SMALL
USER_CHARGES
2-[(1-bromo-2-naphthyl)oxy]-N-(2,2,6,6-tetramethyl-4-piperidyl)-acetamide
@<TRIPOS>ATOM
      1 C1          3.0167   14.3403    1.7478 C.3       1 <0>        -0.1758
      2 C2          3.9935   13.9437    0.6344 C.3       1 <0>         0.0675
      3 C3          4.1764   12.4280    0.6319 C.3       1 <0>        -0.1362
      4 C4          2.9483   11.7452    0.0305 C.3       1 <0>         0.1418
      5 C5          2.7737   12.2372   -1.4059 C.3       1 <0>        -0.1406
      6 C6          2.5756   13.7507   -1.4295 C.3       1 <0>         0.0658
      7 C7          1.1540   14.0888   -0.9649 C.3       1 <0>        -0.1738
      8 C8          2.6983   14.2130   -2.8986 C.3       1 <0>        -0.1835
      9 N1          3.1588   10.2920    0.0217 N.am      1 <0>        -0.7298
     10 C9          2.1003    9.4577    0.0279 C.2       1 <0>         0.5217
     11 O1          0.9740    9.9072    0.0408 O.2       1 <0>        -0.4965
     12 C10         2.3163    7.9663    0.0189 C.3       1 <0>         0.0367
     13 O2          1.0513    7.3017    0.0279 O.3       1 <0>        -0.2767
     14 C11         1.0682    5.9427    0.0214 C.ar      1 <0>         0.1568
     15 C12         2.2926    5.2680    0.0061 C.ar      1 <0>        -0.1982
     16 C13         2.3421    3.9088   -0.0003 C.ar      1 <0>        -0.0399
     17 C14         1.1478    3.1673    0.0076 C.ar      1 <0>        -0.0788
     18 C15         1.1627    1.7621    0.0004 C.ar      1 <0>        -0.0916
     19 C16        -0.0126    1.0758    0.0080 C.ar      1 <0>        -0.1196
     20 C17        -1.2348    1.7456    0.0174 C.ar      1 <0>        -0.0891
     21 C18        -1.2883    3.1055    0.0301 C.ar      1 <0>        -0.1214
     22 C19        -0.0952    3.8485    0.0227 C.ar      1 <0>         0.0038
     23 C20        -0.1118    5.2536    0.0294 C.ar      1 <0>        -0.1235
     24 Br1        -1.7572    6.1852    0.0489 Br        1 <0>        -0.0226
     25 C21         5.3603   14.5766    0.9784 C.3       1 <0>        -0.1840
     26 H1          3.4148   14.0213    2.7110 H         1 <0>         0.1066
     27 H2          2.8869   15.4225    1.7487 H         1 <0>         0.0835
     28 H3          2.0541   13.8590    1.5751 H         1 <0>         0.0833
     29 H4          4.3206   12.0775    1.6565 H         1 <0>         0.1185
     30 H5          5.0596   12.1692    0.0435 H         1 <0>         0.0964
     31 H6          2.0626   11.9699    0.6191 H         1 <0>         0.1086
     32 H7          3.6605   11.9774   -1.9884 H         1 <0>         0.0921
     33 H8          1.9039   11.7499   -1.8526 H         1 <0>         0.1161
     34 H9          0.9803   15.1591   -1.0759 H         1 <0>         0.0824
     35 H10         0.4335   13.5391   -1.5706 H         1 <0>         0.1070
     36 H11         1.0375   13.8084    0.0819 H         1 <0>         0.0819
     37 H12         3.6994   13.9897   -3.2674 H         1 <0>         0.0807
     38 H13         1.9615   13.6887   -3.5072 H         1 <0>         0.1061
     39 H14         2.5205   15.2868   -2.9576 H         1 <0>         0.0835
     40 H15         4.0597    9.9325    0.0115 H         1 <0>         0.4078
     41 H16         2.8854    7.6762    0.9022 H         1 <0>         0.0995
     42 H17         2.8684    7.6846   -0.8777 H         1 <0>         0.0989
     43 H18         3.2123    5.8342   -0.0004 H         1 <0>         0.1365
     44 H19         3.2953    3.4012   -0.0114 H         1 <0>         0.1412
     45 H20         2.1022    1.2294   -0.0107 H         1 <0>         0.1333
     46 H21         0.0021   -0.0041    0.0020 H         1 <0>         0.1300
     47 H22        -2.1530    1.1771    0.0187 H         1 <0>         0.1310
     48 H23        -2.2425    3.6111    0.0420 H         1 <0>         0.1369
     49 H24         6.0955   14.2832    0.2291 H         1 <0>         0.0821
     50 H25         5.2655   15.6624    0.9888 H         1 <0>         0.0840
     51 H26         5.6840   14.2307    1.9601 H         1 <0>         0.1065
     52 N2          3.5944   14.5283   -0.6741 N.4       1 <0>        -0.5090
     53 H27         4.4352   14.6028   -1.2586 H         1 <0>         0.4291
     54 H28         3.2140   15.4661   -0.5004 H         1 <0>         0.4326
@<TRIPOS>BOND
     1    1    2 1
     2    1   26 1
     3    1   27 1
     4    1   28 1
     5    2    3 1
     6    2   25 1
     7    2   52 1
     8    3    4 1
     9    3   29 1
    10    3   30 1
    11    4    5 1
    12    4    9 1
    13    4   31 1
    14    5    6 1
    15    5   32 1
    16    5   33 1
    17    6    7 1
    18    6    8 1
    19    6   52 1
    20    7   34 1
    21    7   35 1
    22    7   36 1
    23    8   37 1
    24    8   38 1
    25    8   39 1
    26    9   10 am
    27    9   40 1
    28   10   11 2
    29   10   12 1
    30   12   13 1
    31   12   41 1
    32   12   42 1
    33   13   14 1
    34   14   23 ar
    35   14   15 ar
    36   15   16 ar
    37   15   43 1
    38   16   17 ar
    39   16   44 1
    40   17   22 ar
    41   17   18 ar
    42   18   19 ar
    43   18   45 1
    44   19   20 ar
    45   19   46 1
    46   20   21 ar
    47   20   47 1
    48   21   22 ar
    49   21   48 1
    50   22   23 ar
    51   23   24 1
    52   25   49 1
    53   25   50 1
    54   25   51 1
    55   52   53 1
    56   52   54 1
@<TRIPOS>MOLECULE
ZINC19125142
   57    60     0     0     0
SMALL
USER_CHARGES
(4S)-1'-[(2R)-2-(3,4-dichlorophenyl)-2-hydroxy-ethyl]-6,7-dimethyl-spiro[chroman-2,4'-piperidine]-4-ol
@<TRIPOS>ATOM
      1 C1          6.9399    4.9795    5.7246 C.3       1 <0>        -0.1218
      2 C2          5.5475    4.4461    5.5063 C.ar      1 <0>        -0.1013
      3 C3          5.2434    3.1447    5.8562 C.ar      1 <0>        -0.0757
      4 C4          3.9661    2.6479    5.6581 C.ar      1 <0>        -0.1986
      5 C5          2.9892    3.4598    5.1083 C.ar      1 <0>         0.1275
      6 C6          3.2989    4.7698    4.7575 C.ar      1 <0>        -0.1425
      7 C7          4.5740    5.2591    4.9561 C.ar      1 <0>        -0.0423
      8 C8          4.9051    6.6785    4.5731 C.3       1 <0>        -0.1250
      9 O1          1.7223    3.0151    4.8999 O.3       1 <0>        -0.3063
     10 C9          1.4977    1.6065    4.9162 C.3       1 <0>         0.1160
     11 C10        -0.0044    1.3205    4.9529 C.3       1 <0>        -0.1291
     12 C11        -0.6525    1.8498    3.6713 C.3       1 <0>        -0.0049
     13 C12         1.3966    1.5084    2.4236 C.3       1 <0>         0.0036
     14 C13         2.1074    0.9685    3.6668 C.3       1 <0>        -0.1748
     15 C14        -0.7288    1.5792    1.2668 C.3       1 <0>        -0.0390
     16 C15        -2.1516    1.0168    1.2850 C.3       1 <0>         0.1357
     17 H1         -2.6952    1.4310    2.1341 H         1 <0>         0.1356
     18 C16        -2.8561    1.3913    0.0065 C.ar      1 <0>        -0.1272
     19 C17        -2.6981    0.6106   -1.1237 C.ar      1 <0>        -0.0907
     20 C18        -3.3481    0.9497   -2.2952 C.ar      1 <0>        -0.0896
     21 C19        -4.1486    2.0772   -2.3407 C.ar      1 <0>        -0.0183
     22 C20        -4.3024    2.8620   -1.2106 C.ar      1 <0>        -0.0296
     23 C21        -3.6554    2.5179   -0.0371 C.ar      1 <0>        -0.0820
     24 Cl1        -5.3069    4.2768   -1.2659 Cl        1 <0>        -0.0261
     25 Cl2        -4.9602    2.5073   -3.8138 Cl        1 <0>        -0.0243
     26 O2         -2.0997   -0.4065    1.4010 O.3       1 <0>        -0.5437
     27 C22         2.1617    1.0183    6.1662 C.3       1 <0>        -0.1422
     28 C23         3.6746    1.2207    6.0472 C.3       1 <0>         0.1534
     29 H2          4.0718    0.5488    5.2863 H         1 <0>         0.0690
     30 O3          4.2923    0.9346    7.3036 O.3       1 <0>        -0.5507
     31 H3          7.0073    5.4234    6.7179 H         1 <0>         0.0760
     32 H4          7.6585    4.1642    5.6415 H         1 <0>         0.0686
     33 H5          7.1610    5.7368    4.9725 H         1 <0>         0.0746
     34 H6          6.0055    2.5117    6.2861 H         1 <0>         0.1265
     35 H7          2.5391    5.4059    4.3279 H         1 <0>         0.1320
     36 H8          4.7171    7.3370    5.4211 H         1 <0>         0.0799
     37 H9          5.9555    6.7426    4.2892 H         1 <0>         0.0782
     38 H10         4.2822    6.9826    3.7319 H         1 <0>         0.0700
     39 H11        -0.4481    1.8162    5.8164 H         1 <0>         0.1263
     40 H12        -0.1688    0.2455    5.0264 H         1 <0>         0.1122
     41 H13        -0.5039    2.9277    3.6076 H         1 <0>         0.1395
     42 H14        -1.7201    1.6307    3.6871 H         1 <0>         0.1341
     43 H15         1.8173    1.0414    1.5330 H         1 <0>         0.1320
     44 H16         1.5341    2.5882    2.3667 H         1 <0>         0.1356
     45 H17         3.1683    1.2131    3.6143 H         1 <0>         0.1191
     46 H18         1.9856   -0.1136    3.7147 H         1 <0>         0.1074
     47 H19        -0.1888    1.1738    0.4112 H         1 <0>         0.1364
     48 H20        -0.7686    2.6658    1.1897 H         1 <0>         0.1460
     49 H21        -2.0695   -0.2670   -1.0898 H         1 <0>         0.1390
     50 H22        -3.2275    0.3372   -3.1765 H         1 <0>         0.1525
     51 H23        -3.7746    3.1299    0.8447 H         1 <0>         0.1475
     52 H24        -1.6295   -0.8432    0.6777 H         1 <0>         0.3893
     53 H25         1.7913    1.5303    7.0544 H         1 <0>         0.0987
     54 H26         1.9376   -0.0462    6.2348 H         1 <0>         0.0975
     55 H27         5.2536    1.0396    7.3022 H         1 <0>         0.3861
     56 N1         -0.0403    1.1716    2.5089 N.4       1 <0>        -0.3901
     57 H28        -0.1378    0.1562    2.6264 H         1 <0>         0.4300
@<TRIPOS>BOND
     1    1    2 1
     2    1   31 1
     3    1   32 1
     4    1   33 1
     5    2    7 ar
     6    2    3 ar
     7    3    4 ar
     8    3   34 1
     9    4   28 1
    10    4    5 ar
    11    5    6 ar
    12    5    9 1
    13    6    7 ar
    14    6   35 1
    15    7    8 1
    16    8   36 1
    17    8   37 1
    18    8   38 1
    19    9   10 1
    20   10   14 1
    21   10   11 1
    22   10   27 1
    23   11   12 1
    24   11   39 1
    25   11   40 1
    26   12   41 1
    27   12   42 1
    28   12   56 1
    29   13   14 1
    30   13   43 1
    31   13   44 1
    32   13   56 1
    33   14   45 1
    34   14   46 1
    35   15   16 1
    36   15   47 1
    37   15   48 1
    38   15   56 1
    39   16   17 1
    40   16   18 1
    41   16   26 1
    42   18   23 ar
    43   18   19 ar
    44   19   20 ar
    45   19   49 1
    46   20   21 ar
    47   20   50 1
    48   21   22 ar
    49   21   25 1
    50   22   23 ar
    51   22   24 1
    52   23   51 1
    53   26   52 1
    54   27   28 1
    55   27   53 1
    56   27   54 1
    57   28   29 1
    58   28   30 1
    59   30   55 1
    60   56   57 1
@<TRIPOS>MOLECULE
ZINC36206452
   58    60     0     0     0
SMALL
USER_CHARGES

@<TRIPOS>ATOM
      1 C1          1.9638    0.1193   -1.3954 C.3       1 <0>        -0.1204
      2 C2          1.6256   -1.3468   -1.3102 C.ar      1 <0>        -0.0660
      3 C3          1.2306   -2.0300   -2.4466 C.ar      1 <0>        -0.1268
      4 C4          0.9198   -3.3724   -2.3747 C.ar      1 <0>        -0.0912
      5 C5          1.0044   -4.0404   -1.1537 C.ar      1 <0>        -0.0594
      6 C6          1.4030   -3.3467   -0.0121 C.ar      1 <0>        -0.0375
      7 C7          1.7168   -2.0054   -0.0973 C.ar      1 <0>        -0.1210
      8 C8          1.4969   -4.0615    1.3113 C.3       1 <0>        -0.1104
      9 C9          0.6713   -5.4824   -1.0698 C.2       1 <0>        -0.0145
     10 C10         1.4283   -6.4042   -1.7125 C.2       1 <0>        -0.1583
     11 S1          0.6323   -7.9468   -1.3072 S.3       1 <0>         0.1882
     12 C11        -0.6849   -7.3245   -0.2945 C.2       1 <0>         0.0670
     13 C12        -0.4735   -5.9361   -0.2892 C.2       1 <0>        -0.1995
     14 C13        -1.4108   -5.1691    0.4739 C.2       1 <0>         0.5519
     15 O1         -1.3130   -3.9556    0.5351 O.2       1 <0>        -0.4718
     16 N1         -2.4020   -5.8082    1.1223 N.am      1 <0>        -0.6243
     17 H1         -3.0401   -5.2936    1.6410 H         1 <0>         0.4263
     18 C14        -2.5267   -7.1589    1.0645 C.2       1 <0>         0.3621
     19 N2         -1.6933   -7.8847    0.3683 N.2       1 <0>        -0.4893
     20 C15        -3.6529   -7.8312    1.8066 C.3       1 <0>         0.0416
     21 N3         -3.4821   -9.2887    1.7398 N.4       1 <0>        -0.3733
     22 C16        -4.7831   -9.9435    1.9317 C.3       1 <0>        -0.0063
     23 C17        -4.6382  -11.4470    1.6882 C.3       1 <0>         0.1144
     24 C18        -6.0173  -12.1074    1.7406 C.3       1 <0>        -0.1804
     25 C19        -4.0118  -11.6828    0.3124 C.3       1 <0>        -0.2076
     26 O2         -3.7997  -12.0143    2.6968 O.3       1 <0>        -0.5586
     27 C20        -2.5556   -9.7220    2.7942 C.3       1 <0>         0.0170
     28 C21        -1.2409   -8.9499    2.6667 C.3       1 <0>        -0.1886
     29 C22        -3.1778   -9.4467    4.1646 C.3       1 <0>        -0.1770
     30 H2          3.0244    0.2352   -1.6186 H         1 <0>         0.0748
     31 H3          1.3734    0.5830   -2.1857 H         1 <0>         0.0692
     32 H4          1.7381    0.6001   -0.4435 H         1 <0>         0.0683
     33 H5          1.1651   -1.5115   -3.3917 H         1 <0>         0.1259
     34 H6          0.6112   -3.9046   -3.2624 H         1 <0>         0.1219
     35 H7          2.0303   -1.4681    0.7855 H         1 <0>         0.1238
     36 H8          2.4997   -4.4713    1.4325 H         1 <0>         0.0698
     37 H9          1.2915   -3.3590    2.1190 H         1 <0>         0.0676
     38 H10         0.7676   -4.8711    1.3396 H         1 <0>         0.0539
     39 H11         2.3036   -6.2430   -2.3242 H         1 <0>         0.2069
     40 H12        -3.6433   -7.5116    2.8486 H         1 <0>         0.1656
     41 H13        -4.6039   -7.5556    1.3508 H         1 <0>         0.1655
     42 H14        -5.1292   -9.7722    2.9510 H         1 <0>         0.1472
     43 H15        -5.5055   -9.5295    1.2283 H         1 <0>         0.1447
     44 H16        -6.6568  -11.6747    0.9713 H         1 <0>         0.0784
     45 H17        -5.9141  -13.1785    1.5672 H         1 <0>         0.0822
     46 H18        -6.4635  -11.9394    2.7208 H         1 <0>         0.0779
     47 H19        -3.0292  -11.2123    0.2750 H         1 <0>         0.0629
     48 H20        -3.9085  -12.7539    0.1389 H         1 <0>         0.0924
     49 H21        -4.6513  -11.2501   -0.4570 H         1 <0>         0.0855
     50 H22        -3.6019  -12.9513    2.5627 H         1 <0>         0.4018
     51 H23        -2.3615  -10.7896    2.6911 H         1 <0>         0.1694
     52 H24        -0.8323   -9.0909    1.6660 H         1 <0>         0.1002
     53 H25        -1.4243   -7.8892    2.8381 H         1 <0>         0.0617
     54 H26        -0.5293   -9.3196    3.4050 H         1 <0>         0.0992
     55 H27        -4.0918  -10.0307    4.2726 H         1 <0>         0.0893
     56 H28        -2.4726   -9.7276    4.9468 H         1 <0>         0.1046
     57 H29        -3.4123   -8.3857    4.2507 H         1 <0>         0.0686
     58 H30        -3.1077   -9.5425    0.8379 H         1 <0>         0.4344
@<TRIPOS>BOND
     1    1    2 1
     2    1   30 1
     3    1   31 1
     4    1   32 1
     5    2    7 ar
     6    2    3 ar
     7    3    4 ar
     8    3   33 1
     9    4    5 ar
    10    4   34 1
    11    5    6 ar
    12    5    9 1
    13    6    7 ar
    14    6    8 1
    15    7   35 1
    16    8   36 1
    17    8   37 1
    18    8   38 1
    19    9   13 1
    20    9   10 2
    21   10   11 1
    22   10   39 1
    23   11   12 1
    24   12   19 1
    25   12   13 2
    26   13   14 1
    27   14   15 2
    28   14   16 am
    29   16   17 1
    30   16   18 1
    31   18   19 2
    32   18   20 1
    33   20   21 1
    34   20   40 1
    35   20   41 1
    36   21   22 1
    37   21   27 1
    38   21   58 1
    39   22   23 1
    40   22   42 1
    41   22   43 1
    42   23   24 1
    43   23   25 1
    44   23   26 1
    45   24   44 1
    46   24   45 1
    47   24   46 1
    48   25   47 1
    49   25   48 1
    50   25   49 1
    51   26   50 1
    52   27   28 1
    53   27   29 1
    54   27   51 1
    55   28   52 1
    56   28   53 1
    57   28   54 1
    58   29   55 1
    59   29   56 1
    60   29   57 1
@<TRIPOS>MOLECULE
ZINC39659753
   71    75     0     0     0
SMALL
USER_CHARGES

@<TRIPOS>ATOM
      1 C1         -1.0322   -0.4983    0.6615 C.ar      1 <0>        -0.0998
      2 C2         -0.9366   -1.7551    1.2561 C.ar      1 <0>        -0.1114
      3 C3          0.2349   -2.4476    1.2450 C.ar      1 <0>        -0.1025
      4 C4          1.3675   -1.8894    0.6253 C.ar      1 <0>        -0.0634
      5 C5          2.5903   -2.5765    0.5954 C.ar      1 <0>        -0.0696
      6 C6          3.6833   -1.9945   -0.0247 C.ar      1 <0>        -0.1347
      7 C7          3.5739   -0.7254   -0.6210 C.ar      1 <0>        -0.0742
      8 C8          2.3990   -0.0461   -0.6012 C.ar      1 <0>        -0.1025
      9 C9          1.2700   -0.6106    0.0205 C.ar      1 <0>        -0.0309
     10 C10         0.0431    0.0730    0.0526 C.ar      1 <0>        -0.1111
     11 C11         4.9746   -2.7122   -0.0596 C.2       1 <0>         0.5894
     12 O1          6.0128   -2.0902   -0.1743 O.2       1 <0>        -0.5248
     13 N1          5.0014   -4.0563    0.0356 N.am      1 <0>        -0.6205
     14 C12         3.8497   -4.9887    0.0524 C.3       1 <0>         0.1011
     15 C13         4.3122   -6.1957   -0.7942 C.3       1 <0>        -0.1158
     16 H1          3.9749   -6.0878   -1.8251 H         1 <0>         0.1125
     17 C14         5.8482   -6.1568   -0.7266 C.3       1 <0>        -0.0718
     18 C15         6.1899   -4.9364    0.1407 C.3       1 <0>         0.1086
     19 C16         6.3812   -7.4317   -0.0801 C.3       1 <0>        -0.1484
     20 C17         7.9121   -7.3953   -0.0770 C.3       1 <0>        -0.0081
     21 N2          8.4036   -7.2795   -1.4552 N.4       1 <0>        -0.5041
     22 C18         7.9630   -6.0066   -2.0385 C.3       1 <0>        -0.0113
     23 C19         6.4343   -5.9843   -2.1247 C.3       1 <0>        -0.1342
     24 C20         3.7911   -7.4808   -0.2044 C.2       1 <0>         0.5204
     25 O2          3.5223   -7.5409    0.9767 O.2       1 <0>        -0.5191
     26 N3          3.6237   -8.5635   -0.9895 N.am      1 <0>        -0.7244
     27 C21         3.1171   -9.8128   -0.4161 C.3       1 <0>         0.1169
     28 C22         4.2797  -10.6081    0.1816 C.3       1 <0>        -0.1225
     29 C23         3.7311  -11.6909    1.1128 C.3       1 <0>        -0.1272
     30 C24         2.6232  -11.0998    1.9865 C.3       1 <0>        -0.1326
     31 C25         1.2829  -11.7341    1.6096 C.3       1 <0>        -0.1236
     32 C26         0.7872  -11.1322    0.2931 C.3       1 <0>        -0.1310
     33 C27         1.5801  -11.7291   -0.8711 C.3       1 <0>        -0.1269
     34 C28         2.4432  -10.6408   -1.5123 C.3       1 <0>        -0.1262
     35 H2         -1.9748    0.0285    0.6802 H         1 <0>         0.1298
     36 H3         -1.8048   -2.1857    1.7329 H         1 <0>         0.1292
     37 H4          0.2948   -3.4205    1.7100 H         1 <0>         0.1300
     38 H5          2.6786   -3.5511    1.0524 H         1 <0>         0.1387
     39 H6          4.4359   -0.2855   -1.1004 H         1 <0>         0.1346
     40 H7          2.3306    0.9277   -1.0631 H         1 <0>         0.1373
     41 H8         -0.0468    1.0476   -0.4041 H         1 <0>         0.1333
     42 H9          3.6295   -5.3024    1.0728 H         1 <0>         0.1035
     43 H10         2.9751   -4.5206   -0.3993 H         1 <0>         0.1006
     44 H11         7.0737   -4.4302   -0.2476 H         1 <0>         0.0910
     45 H12         6.3482   -5.2401    1.1755 H         1 <0>         0.0853
     46 H13         6.0167   -7.4997    0.9449 H         1 <0>         0.1252
     47 H14         6.0389   -8.2976   -0.6468 H         1 <0>         0.0992
     48 H15         8.2537   -6.5383    0.5036 H         1 <0>         0.1336
     49 H16         8.2961   -8.3124    0.3696 H         1 <0>         0.1391
     50 H17         9.4119   -7.3171   -1.4555 H         1 <0>         0.4344
     51 H18         8.3034   -5.1826   -1.4113 H         1 <0>         0.1346
     52 H19         8.3846   -5.8999   -3.0380 H         1 <0>         0.1400
     53 H20         6.0940   -6.7982   -2.7649 H         1 <0>         0.0960
     54 H21         6.1071   -5.0317   -2.5414 H         1 <0>         0.1186
     55 H22         3.8387   -8.5155   -1.9341 H         1 <0>         0.3972
     56 H23         2.3921   -9.5861    0.3655 H         1 <0>         0.1209
     57 H24         4.8515  -11.0743   -0.6208 H         1 <0>         0.0607
     58 H25         4.9267   -9.9368    0.7463 H         1 <0>         0.0606
     59 H26         3.3268  -12.5103    0.5185 H         1 <0>         0.0769
     60 H27         4.5342  -12.0647    1.7479 H         1 <0>         0.0625
     61 H28         2.8396  -11.3039    3.0352 H         1 <0>         0.0616
     62 H29         2.5723  -10.0224    1.8292 H         1 <0>         0.0771
     63 H30         1.4103  -12.8102    1.4920 H         1 <0>         0.0663
     64 H31         0.5540  -11.5381    2.3960 H         1 <0>         0.0636
     65 H32        -0.2713  -11.3589    0.1658 H         1 <0>         0.0645
     66 H33         0.9276  -10.0515    0.3121 H         1 <0>         0.0685
     67 H34         2.2206  -12.5300   -0.5017 H         1 <0>         0.0779
     68 H35         0.8897  -12.1295   -1.6135 H         1 <0>         0.0678
     69 H36         1.8155   -9.9922   -2.1235 H         1 <0>         0.0691
     70 H37         3.2058  -11.1037   -2.1387 H         1 <0>         0.0675
     71 H38         8.0410   -8.0436   -2.0055 H         1 <0>         0.4273
@<TRIPOS>BOND
     1    1   10 ar
     2    1    2 ar
     3    1   35 1
     4    2    3 ar
     5    2   36 1
     6    3    4 ar
     7    3   37 1
     8    4    9 ar
     9    4    5 ar
    10    5    6 ar
    11    5   38 1
    12    6    7 ar
    13    6   11 1
    14    7    8 ar
    15    7   39 1
    16    8    9 ar
    17    8   40 1
    18    9   10 ar
    19   10   41 1
    20   11   12 2
    21   11   13 am
    22   13   18 1
    23   13   14 1
    24   14   15 1
    25   14   42 1
    26   14   43 1
    27   15   16 1
    28   15   17 1
    29   15   24 1
    30   17   23 1
    31   17   18 1
    32   17   19 1
    33   18   44 1
    34   18   45 1
    35   19   20 1
    36   19   46 1
    37   19   47 1
    38   20   21 1
    39   20   48 1
    40   20   49 1
    41   21   22 1
    42   21   50 1
    43   21   71 1
    44   22   23 1
    45   22   51 1
    46   22   52 1
    47   23   53 1
    48   23   54 1
    49   24   25 2
    50   24   26 am
    51   26   27 1
    52   26   55 1
    53   27   34 1
    54   27   28 1
    55   27   56 1
    56   28   29 1
    57   28   57 1
    58   28   58 1
    59   29   30 1
    60   29   59 1
    61   29   60 1
    62   30   31 1
    63   30   61 1
    64   30   62 1
    65   31   32 1
    66   31   63 1
    67   31   64 1
    68   32   33 1
    69   32   65 1
    70   32   66 1
    71   33   34 1
    72   33   67 1
    73   33   68 1
    74   34   69 1
    75   34   70 1
@<TRIPOS>MOLECULE
ZINC63814379
   63    65     0     0     0
SMALL
USER_CHARGES

@<TRIPOS>ATOM
      1 C1         -1.0466   -3.7126   -4.2525 C.3       1 <0>        -0.1509
      2 C2          0.1129   -2.9274   -3.6361 C.3       1 <0>        -0.1438
      3 C3         -0.2326   -2.5568   -2.1924 C.3       1 <0>         0.1107
      4 N1          0.8776   -1.8050   -1.6021 N.am      1 <0>        -0.5359
      5 C4          0.9613   -0.4262   -1.7864 C.ar      1 <0>         0.1356
      6 C5          0.3666    0.4335   -0.8868 C.ar      1 <0>        -0.0819
      7 C6          0.4445    1.8115   -1.0618 C.ar      1 <0>        -0.1062
      8 C7          1.1078    2.3493   -2.1226 C.ar      1 <0>        -0.0931
      9 C8          1.7280    1.5084   -3.0621 C.ar      1 <0>        -0.0440
     10 C9          1.6605    0.1035   -2.8923 C.ar      1 <0>        -0.0360
     11 C10         2.2844   -0.7349   -3.8291 C.ar      1 <0>        -0.1191
     12 C11         2.9500   -0.1891   -4.8842 C.ar      1 <0>        -0.1091
     13 C12         3.0219    1.1926   -5.0492 C.ar      1 <0>        -0.1169
     14 C13         2.4191    2.0357   -4.1669 C.ar      1 <0>        -0.1007
     15 C14         1.8180   -2.4468   -0.8809 C.2       1 <0>         0.5102
     16 O1          1.7992   -3.6578   -0.7999 O.2       1 <0>        -0.5049
     17 C15         2.8830   -1.6682   -0.1815 C.2       1 <0>         0.5101
     18 O2          2.8456   -0.4552   -0.1795 O.2       1 <0>        -0.4823
     19 N2          3.8858   -2.3126    0.4475 N.am      1 <0>        -0.7065
     20 C16         4.9332   -1.5468    1.1353 C.3       1 <0>         0.1407
     21 C17         6.0333   -1.1889    0.1341 C.3       1 <0>        -0.1447
     22 C18         7.1379   -0.4015    0.8381 C.3       1 <0>         0.0605
     23 N3          7.6521   -1.1024    2.0054 N.4       1 <0>        -0.4914
     24 C19         6.6862   -1.6709    2.9317 C.3       1 <0>         0.0628
     25 C20         5.5485   -2.4106    2.2356 C.3       1 <0>        -0.1423
     26 C21         6.1173   -0.6108    3.8784 C.3       1 <0>        -0.1757
     27 C22         7.4353   -2.7029    3.8083 C.3       1 <0>        -0.1803
     28 C23         6.6484    1.0051    1.1806 C.3       1 <0>        -0.1708
     29 C24         8.3036   -0.2494   -0.1662 C.3       1 <0>        -0.1796
     30 H1         -1.2177   -4.6212   -3.6752 H         1 <0>         0.0593
     31 H2         -1.9477   -3.0994   -4.2405 H         1 <0>         0.0589
     32 H3         -0.8004   -3.9766   -5.2810 H         1 <0>         0.0624
     33 H4          1.0140   -3.5406   -3.6480 H         1 <0>         0.0668
     34 H5          0.2840   -2.0189   -4.2134 H         1 <0>         0.0724
     35 H6         -1.1337   -1.9436   -2.1804 H         1 <0>         0.0890
     36 H7         -0.4038   -3.4654   -1.6151 H         1 <0>         0.0969
     37 H8         -0.1659    0.0325   -0.0371 H         1 <0>         0.1222
     38 H9         -0.0293    2.4656   -0.3447 H         1 <0>         0.1286
     39 H10         1.1569    3.4216   -2.2420 H         1 <0>         0.1304
     40 H11         2.2371   -1.8077   -3.7135 H         1 <0>         0.1235
     41 H12         3.4295   -0.8366   -5.6034 H         1 <0>         0.1231
     42 H13         3.5560    1.6004   -5.8947 H         1 <0>         0.1255
     43 H14         2.4824    3.1046   -4.3077 H         1 <0>         0.1304
     44 H15         3.9157   -3.2821    0.4458 H         1 <0>         0.4167
     45 H16         4.4939   -0.6479    1.5580 H         1 <0>         0.1105
     46 H17         6.4511   -2.1033   -0.2898 H         1 <0>         0.0936
     47 H18         5.6101   -0.5827   -0.6686 H         1 <0>         0.1150
     48 H19         8.2690   -1.8524    1.6832 H         1 <0>         0.4251
     49 H20         4.7785   -2.6660    2.9681 H         1 <0>         0.1183
     50 H21         5.9318   -3.3356    1.7966 H         1 <0>         0.0980
     51 H22         5.5352    0.1120    3.3067 H         1 <0>         0.0831
     52 H23         5.4759   -1.0905    4.6177 H         1 <0>         0.1060
     53 H24         6.9358   -0.0991    4.3847 H         1 <0>         0.0843
     54 H25         8.2370   -2.2035    4.3524 H         1 <0>         0.0853
     55 H26         6.7391   -3.1509    4.5173 H         1 <0>         0.1077
     56 H27         7.8576   -3.4812    3.1726 H         1 <0>         0.0825
     57 H28         5.7250    0.9384    1.7560 H         1 <0>         0.0833
     58 H29         7.4071    1.5205    1.7695 H         1 <0>         0.0817
     59 H30         6.4638    1.5597    0.2605 H         1 <0>         0.1059
     60 H31         7.9548    0.2859   -1.0493 H         1 <0>         0.1067
     61 H32         9.1148    0.3093    0.3005 H         1 <0>         0.0843
     62 H33         8.6629   -1.2362   -0.4580 H         1 <0>         0.0815
     63 H34         8.2577   -0.4614    2.5240 H         1 <0>         0.4268
@<TRIPOS>BOND
     1    1    2 1
     2    1   30 1
     3    1   31 1
     4    1   32 1
     5    2    3 1
     6    2   33 1
     7    2   34 1
     8    3    4 1
     9    3   35 1
    10    3   36 1
    11    4    5 1
    12    4   15 am
    13    5   10 ar
    14    5    6 ar
    15    6    7 ar
    16    6   37 1
    17    7    8 ar
    18    7   38 1
    19    8    9 ar
    20    8   39 1
    21    9   14 ar
    22    9   10 ar
    23   10   11 ar
    24   11   12 ar
    25   11   40 1
    26   12   13 ar
    27   12   41 1
    28   13   14 ar
    29   13   42 1
    30   14   43 1
    31   15   16 2
    32   15   17 1
    33   17   18 2
    34   17   19 am
    35   19   20 1
    36   19   44 1
    37   20   25 1
    38   20   21 1
    39   20   45 1
    40   21   22 1
    41   21   46 1
    42   21   47 1
    43   22   23 1
    44   22   28 1
    45   22   29 1
    46   23   24 1
    47   23   48 1
    48   23   63 1
    49   24   25 1
    50   24   26 1
    51   24   27 1
    52   25   49 1
    53   25   50 1
    54   26   51 1
    55   26   52 1
    56   26   53 1
    57   27   54 1
    58   27   55 1
    59   27   56 1
    60   28   57 1
    61   28   58 1
    62   28   59 1
    63   29   60 1
    64   29   61 1
    65   29   62 1
@<TRIPOS>MOLECULE
ZINC31933173
   51    52     0     0     0
SMALL
USER_CHARGES
2-[4-[[2-(4-bromophenyl)acetyl]amino]-1-piperidyl]-N-propyl-acetamide
@<TRIPOS>ATOM
      1 C1          2.3342  -12.4624   -8.7921 C.3       1 <0>        -0.1563
      2 C2          1.6715  -11.0837   -8.8225 C.3       1 <0>        -0.1374
      3 C3          1.6773  -10.4838   -7.4151 C.3       1 <0>         0.1145
      4 N1          1.0428   -9.1637   -7.4442 N.am      1 <0>        -0.7147
      5 C4          0.9344   -8.4429   -6.3106 C.2       1 <0>         0.4988
      6 O1          1.3621   -8.8872   -5.2663 O.2       1 <0>        -0.5352
      7 C5          0.2816   -7.0849   -6.3406 C.3       1 <0>        -0.0288
      8 N2          0.4201   -6.4459   -5.0251 N.4       1 <0>        -0.3881
      9 C6          1.8269   -6.1430   -4.7327 C.3       1 <0>        -0.0039
     10 C7          1.9495   -5.6144   -3.3018 C.3       1 <0>        -0.1495
     11 C8          1.0950   -4.3525   -3.1540 C.3       1 <0>         0.1362
     12 C9         -0.3567   -4.6840   -3.5110 C.3       1 <0>        -0.1592
     13 C10        -0.4124   -5.2395   -4.9358 C.3       1 <0>         0.0011
     14 N3          1.1622   -3.8748   -1.7707 N.am      1 <0>        -0.7464
     15 C11         0.9403   -2.5743   -1.4953 C.2       1 <0>         0.5217
     16 O2          0.6850   -1.7994   -2.3927 O.2       1 <0>        -0.5233
     17 C12         1.0094   -2.0830   -0.0723 C.3       1 <0>        -0.1043
     18 C13         0.7247   -0.6035   -0.0373 C.ar      1 <0>        -0.0617
     19 C14        -0.5734   -0.1530    0.1141 C.ar      1 <0>        -0.0997
     20 C15        -0.8349    1.2038    0.1467 C.ar      1 <0>        -0.0883
     21 C16         0.2025    2.1109    0.0273 C.ar      1 <0>        -0.0863
     22 C17         1.5013    1.6597   -0.1242 C.ar      1 <0>        -0.0878
     23 C18         1.7619    0.3027   -0.1562 C.ar      1 <0>        -0.0991
     24 Br1        -0.1547    3.9674    0.0719 Br        1 <0>        -0.0429
     25 H1          2.3300  -12.8936   -9.8040 H         1 <0>         0.0680
     26 H2          1.7774  -13.1219   -8.1102 H         1 <0>         0.0611
     27 H3          3.3716  -12.3629   -8.4403 H         1 <0>         0.0609
     28 H4          2.2283  -10.4242   -9.5045 H         1 <0>         0.0730
     29 H5          0.6341  -11.1832   -9.1744 H         1 <0>         0.0734
     30 H6          1.1205  -11.1433   -6.7331 H         1 <0>         0.0780
     31 H7          2.7147  -10.3843   -7.0632 H         1 <0>         0.0775
     32 H8          0.6548   -8.7607   -8.3913 H         1 <0>         0.4352
     33 H9          0.7685   -6.4608   -7.1045 H         1 <0>         0.1558
     34 H10        -0.7854   -7.1963   -6.5837 H         1 <0>         0.1619
     35 H11         2.4285   -7.0579   -4.8379 H         1 <0>         0.1440
     36 H12         2.1920   -5.3811   -5.4371 H         1 <0>         0.1267
     37 H13         1.5985   -6.3817   -2.5961 H         1 <0>         0.0976
     38 H14         3.0015   -5.3740   -3.0886 H         1 <0>         0.1188
     39 H15         1.4796   -3.5428   -3.7915 H         1 <0>         0.1036
     40 H16        -0.7450   -5.4350   -2.8073 H         1 <0>         0.0928
     41 H17        -0.9676   -3.7714   -3.4472 H         1 <0>         0.1179
     42 H18        -0.0366   -4.4818   -5.6392 H         1 <0>         0.1313
     43 H19        -1.4524   -5.4920   -5.1900 H         1 <0>         0.1360
     44 H20         1.3938   -4.5776   -0.9568 H         1 <0>         0.4288
     45 H21         0.2627   -2.6146    0.5358 H         1 <0>         0.1103
     46 H22         2.0144   -2.2727    0.3327 H         1 <0>         0.1108
     47 H23        -1.3833   -0.8614    0.2073 H         1 <0>         0.1283
     48 H24        -1.8496    1.5556    0.2610 H         1 <0>         0.1350
     49 H25         2.3116    2.3676   -0.2168 H         1 <0>         0.1353
     50 H26         2.7760   -0.0497   -0.2738 H         1 <0>         0.1291
     51 H27         0.0647   -7.1557   -4.2636 H         1 <0>         0.4496
@<TRIPOS>BOND
     1    1    2 1
     2    1   25 1
     3    1   26 1
     4    1   27 1
     5    2    3 1
     6    2   28 1
     7    2   29 1
     8    3    4 1
     9    3   30 1
    10    3   31 1
    11    4    5 am
    12    4   32 1
    13    5    6 2
    14    5    7 1
    15    7    8 1
    16    7   33 1
    17    7   34 1
    18    8   13 1
    19    8    9 1
    20    8   51 1
    21    9   10 1
    22    9   35 1
    23    9   36 1
    24   10   11 1
    25   10   37 1
    26   10   38 1
    27   11   12 1
    28   11   14 1
    29   11   39 1
    30   12   13 1
    31   12   40 1
    32   12   41 1
    33   13   42 1
    34   13   43 1
    35   14   15 am
    36   14   44 1
    37   15   16 2
    38   15   17 1
    39   17   18 1
    40   17   45 1
    41   17   46 1
    42   18   23 ar
    43   18   19 ar
    44   19   20 ar
    45   19   47 1
    46   20   21 ar
    47   20   48 1
    48   21   22 ar
    49   21   24 1
    50   22   23 ar
    51   22   49 1
    52   23   50 1
@<TRIPOS>MOLECULE
ZINC39637248
   65    68     0     0     0
SMALL
USER_CHARGES

@<TRIPOS>ATOM
      1 C1         -3.5872   -2.0238   -0.4415 C.3       1 <0>        -0.1514
      2 C2         -2.0686   -2.2016   -0.4964 C.3       1 <0>        -0.0826
      3 H1         -1.8164   -2.9390   -1.2584 H         1 <0>         0.0731
      4 C3         -1.4108   -0.8645   -0.8430 C.3       1 <0>        -0.1200
      5 C4          0.1079   -1.0422   -0.8979 C.3       1 <0>        -0.1189
      6 C5          0.6147   -1.5221    0.4637 C.3       1 <0>        -0.1308
      7 C6         -0.0432   -2.8592    0.8104 C.3       1 <0>         0.1504
      8 H2          0.2091   -3.5966    0.0483 H         1 <0>         0.0913
      9 C7         -1.5618   -2.6815    0.8652 C.3       1 <0>        -0.0935
     10 H3         -1.8140   -1.9441    1.6272 H         1 <0>         0.0775
     11 C8         -2.2196   -4.0186    1.2119 C.3       1 <0>        -0.1479
     12 N1          0.4421   -3.3187    2.1141 N.am      1 <0>        -0.7220
     13 C9          1.5951   -4.0115    2.1980 C.2       1 <0>         0.5207
     14 O1          2.2310   -4.2545    1.1942 O.2       1 <0>        -0.5200
     15 C10         2.0943   -4.4841    3.5391 C.3       1 <0>        -0.1140
     16 H4          1.7531   -3.8138    4.3279 H         1 <0>         0.1107
     17 C11         3.6369   -4.5728    3.5382 C.3       1 <0>         0.1159
     18 N2          3.9432   -5.7763    4.3467 N.am      1 <0>        -0.6195
     19 C12         2.9027   -6.7575    3.9559 C.3       1 <0>         0.0940
     20 C13         1.6163   -5.9200    3.8126 C.3       1 <0>        -0.0721
     21 C14         0.7822   -6.4314    2.6420 C.3       1 <0>        -0.1493
     22 C15         0.2696   -7.8384    2.9624 C.3       1 <0>        -0.0080
     23 N3         -0.5400   -7.7994    4.1862 N.4       1 <0>        -0.5048
     24 C16         0.2933   -7.3959    5.3252 C.3       1 <0>        -0.0112
     25 C17         0.8068   -5.9702    5.1048 C.3       1 <0>        -0.1352
     26 C18         4.9418   -5.9415    5.2365 C.2       1 <0>         0.5819
     27 O2          5.6536   -5.0018    5.5328 O.2       1 <0>        -0.5136
     28 C19         5.1716   -7.2658    5.8524 C.ar      1 <0>        -0.1355
     29 C20         4.6968   -8.4207    5.2288 C.ar      1 <0>        -0.1087
     30 C21         4.9149   -9.6534    5.8086 C.ar      1 <0>        -0.1289
     31 C22         5.6023   -9.7463    7.0058 C.ar      1 <0>        -0.0885
     32 C23         6.0753   -8.6053    7.6293 C.ar      1 <0>        -0.1191
     33 C24         5.8693   -7.3671    7.0571 C.ar      1 <0>        -0.0572
     34 H5         -3.8395   -1.2864    0.3205 H         1 <0>         0.0561
     35 H6         -3.9483   -1.6820   -1.4115 H         1 <0>         0.0599
     36 H7         -4.0559   -2.9764   -0.1945 H         1 <0>         0.0570
     37 H8         -1.7718   -0.5226   -1.8130 H         1 <0>         0.0688
     38 H9         -1.6630   -0.1270   -0.0810 H         1 <0>         0.0647
     39 H10         0.3601   -1.7796   -1.6599 H         1 <0>         0.0652
     40 H11         0.5765   -0.0896   -1.1449 H         1 <0>         0.0695
     41 H12         1.6966   -1.6487    0.4246 H         1 <0>         0.0686
     42 H13         0.3625   -0.7847    1.2257 H         1 <0>         0.0651
     43 H14        -1.9674   -4.7560    0.4498 H         1 <0>         0.0561
     44 H15        -1.8586   -4.3605    2.1819 H         1 <0>         0.0440
     45 H16        -3.3015   -3.8919    1.2509 H         1 <0>         0.0657
     46 H17        -0.0665   -3.1243    2.9169 H         1 <0>         0.3985
     47 H18         4.0101   -4.6931    2.5211 H         1 <0>         0.0994
     48 H19         4.0688   -3.6848    3.9998 H         1 <0>         0.0973
     49 H20         3.1598   -7.2269    3.0064 H         1 <0>         0.0891
     50 H21         2.7799   -7.5117    4.7332 H         1 <0>         0.0951
     51 H22        -0.0642   -5.7641    2.4794 H         1 <0>         0.0990
     52 H23         1.3981   -6.4644    1.7433 H         1 <0>         0.1272
     53 H24        -0.3406   -8.1997    2.1346 H         1 <0>         0.1399
     54 H25         1.1165   -8.5088    3.1085 H         1 <0>         0.1326
     55 H26        -1.2918   -7.1366    4.0696 H         1 <0>         0.4282
     56 H27        -0.2994   -7.4311    6.2393 H         1 <0>         0.1406
     57 H28         1.1397   -8.0768    5.4151 H         1 <0>         0.1324
     58 H29         1.4400   -5.6780    5.9425 H         1 <0>         0.1188
     59 H30        -0.0388   -5.2863    5.0313 H         1 <0>         0.0975
     60 H31         4.1594   -8.3495    4.2947 H         1 <0>         0.1307
     61 H32         4.5481  -10.5478    5.3271 H         1 <0>         0.1298
     62 H33         5.7702  -10.7137    7.4557 H         1 <0>         0.1320
     63 H34         6.6108   -8.6847    8.5639 H         1 <0>         0.1358
     64 H35         6.2431   -6.4776    7.5423 H         1 <0>         0.1377
     65 H36        -0.9265   -8.7149    4.3614 H         1 <0>         0.4343
@<TRIPOS>BOND
     1    1    2 1
     2    1   34 1
     3    1   35 1
     4    1   36 1
     5    2    3 1
     6    2    9 1
     7    2    4 1
     8    4    5 1
     9    4   37 1
    10    4   38 1
    11    5    6 1
    12    5   39 1
    13    5   40 1
    14    6    7 1
    15    6   41 1
    16    6   42 1
    17    7    8 1
    18    7    9 1
    19    7   12 1
    20    9   10 1
    21    9   11 1
    22   11   43 1
    23   11   44 1
    24   11   45 1
    25   12   13 am
    26   12   46 1
    27   13   14 2
    28   13   15 1
    29   15   16 1
    30   15   20 1
    31   15   17 1
    32   17   18 1
    33   17   47 1
    34   17   48 1
    35   18   19 1
    36   18   26 am
    37   19   20 1
    38   19   49 1
    39   19   50 1
    40   20   25 1
    41   20   21 1
    42   21   22 1
    43   21   51 1
    44   21   52 1
    45   22   23 1
    46   22   53 1
    47   22   54 1
    48   23   24 1
    49   23   55 1
    50   23   65 1
    51   24   25 1
    52   24   56 1
    53   24   57 1
    54   25   58 1
    55   25   59 1
    56   26   27 2
    57   26   28 1
    58   28   33 ar
    59   28   29 ar
    60   29   30 ar
    61   29   60 1
    62   30   31 ar
    63   30   61 1
    64   31   32 ar
    65   31   62 1
    66   32   33 ar
    67   32   63 1
    68   33   64 1
@<TRIPOS>MOLECULE
ZINC39673689
   61    63     0     0     0
SMALL
USER_CHARGES

@<TRIPOS>ATOM
      1 C1          2.6595   -3.6345   -3.3211 C.3       1 <0>        -0.1585
      2 C2          1.5753   -3.7921   -2.2532 C.3       1 <0>        -0.1178
      3 C3          1.0007   -2.4180   -1.9031 C.3       1 <0>        -0.1325
      4 C4         -0.0836   -2.5756   -0.8352 C.3       1 <0>         0.1414
      5 H1         -0.8347   -3.2852   -1.1820 H         1 <0>         0.0897
      6 C5         -0.7441   -1.2202   -0.5751 C.3       1 <0>        -0.1686
      7 N1          0.5202   -3.0704    0.4044 N.am      1 <0>        -0.7240
      8 C6         -0.2291   -3.7516    1.2939 C.2       1 <0>         0.5125
      9 O1         -1.4032   -3.9548    1.0680 O.2       1 <0>        -0.5105
     10 C7          0.3921   -4.2606    2.5691 C.3       1 <0>        -0.1150
     11 H2          1.2363   -3.6336    2.8558 H         1 <0>         0.1172
     12 C8         -0.6586   -4.2989    3.7014 C.3       1 <0>         0.1219
     13 N2         -1.1710   -5.6893    3.6899 N.am      1 <0>        -0.6127
     14 C9          0.0286   -6.5222    3.4344 C.3       1 <0>         0.0964
     15 C10         0.8430   -5.7211    2.3992 C.3       1 <0>        -0.0719
     16 C11         0.5286   -6.2106    0.9888 C.3       1 <0>        -0.1496
     17 C12         1.0372   -7.6458    0.8266 C.3       1 <0>        -0.0095
     18 N3          2.4846   -7.6840    1.0682 N.4       1 <0>        -0.5051
     19 C13         2.7712   -7.3003    2.4557 C.3       1 <0>        -0.0100
     20 C14         2.3356   -5.8506    2.6869 C.3       1 <0>        -0.1346
     21 C15        -2.4408   -6.1032    3.8708 C.2       1 <0>         0.5870
     22 O2         -3.3368   -5.2882    3.9750 O.2       1 <0>        -0.4913
     23 C16        -2.7438   -7.5471    3.9425 C.ar      1 <0>        -0.1517
     24 C17        -1.8353   -8.4260    4.5369 C.ar      1 <0>        -0.0765
     25 C18        -2.1228   -9.7725    4.6012 C.ar      1 <0>        -0.1122
     26 C19        -3.3095  -10.2579    4.0786 C.ar      1 <0>        -0.0599
     27 C20        -4.2166   -9.3961    3.4876 C.ar      1 <0>         0.0632
     28 C21        -3.9434   -8.0395    3.4211 C.ar      1 <0>         0.1312
     29 F1         -4.8310   -7.1963    2.8496 F         1 <0>        -0.1030
     30 F2         -5.3724   -9.8773    2.9799 F         1 <0>        -0.1153
     31 C22        -3.6145  -11.7318    4.1533 C.3       1 <0>        -0.1260
     32 H3          3.0689   -4.6134   -3.5705 H         1 <0>         0.0535
     33 H4          2.2271   -3.1832   -4.2141 H         1 <0>         0.0603
     34 H5          3.4550   -2.9945   -2.9395 H         1 <0>         0.0564
     35 H6          0.7797   -4.4321   -2.6348 H         1 <0>         0.0621
     36 H7          2.0077   -4.2433   -1.3602 H         1 <0>         0.0503
     37 H8          1.7962   -1.7780   -1.5215 H         1 <0>         0.0715
     38 H9          0.5682   -1.9667   -2.7962 H         1 <0>         0.0850
     39 H10        -1.1934   -0.8520   -1.4975 H         1 <0>         0.0702
     40 H11        -1.5166   -1.3325    0.1857 H         1 <0>         0.0627
     41 H12         0.0070   -0.5106   -0.2283 H         1 <0>         0.0592
     42 H13         1.4593   -2.9079    0.5851 H         1 <0>         0.3974
     43 H14        -0.1921   -4.0737    4.6604 H         1 <0>         0.0906
     44 H15        -1.4650   -3.5950    3.4955 H         1 <0>         0.1022
     45 H16         0.6036   -6.6524    4.3512 H         1 <0>         0.0904
     46 H17        -0.2605   -7.4901    3.0249 H         1 <0>         0.0878
     47 H18        -0.5491   -6.1859    0.8269 H         1 <0>         0.1244
     48 H19         1.0213   -5.5655    0.2614 H         1 <0>         0.0981
     49 H20         0.5322   -8.2932    1.5435 H         1 <0>         0.1326
     50 H21         0.8287   -7.9927   -0.1854 H         1 <0>         0.1388
     51 H22         2.8275   -8.6182    0.9013 H         1 <0>         0.4342
     52 H23         2.2253   -7.9561    3.1340 H         1 <0>         0.1327
     53 H24         3.8408   -7.3926    2.6444 H         1 <0>         0.1408
     54 H25         2.8931   -5.1924    2.0206 H         1 <0>         0.0985
     55 H26         2.5321   -5.5723    3.7223 H         1 <0>         0.1232
     56 H27        -0.9085   -8.0510    4.9453 H         1 <0>         0.1434
     57 H28        -1.4197  -10.4515    5.0607 H         1 <0>         0.1492
     58 H29        -4.1460  -11.9463    5.0805 H         1 <0>         0.0895
     59 H30        -4.2351  -12.0179    3.3042 H         1 <0>         0.0796
     60 H31        -2.6829  -12.2973    4.1294 H         1 <0>         0.0827
     61 H32         2.9460   -7.0423    0.4410 H         1 <0>         0.4283
@<TRIPOS>BOND
     1    1    2 1
     2    1   32 1
     3    1   33 1
     4    1   34 1
     5    2    3 1
     6    2   35 1
     7    2   36 1
     8    3    4 1
     9    3   37 1
    10    3   38 1
    11    4    5 1
    12    4    6 1
    13    4    7 1
    14    6   39 1
    15    6   40 1
    16    6   41 1
    17    7    8 am
    18    7   42 1
    19    8    9 2
    20    8   10 1
    21   10   11 1
    22   10   15 1
    23   10   12 1
    24   12   13 1
    25   12   43 1
    26   12   44 1
    27   13   14 1
    28   13   21 am
    29   14   15 1
    30   14   45 1
    31   14   46 1
    32   15   20 1
    33   15   16 1
    34   16   17 1
    35   16   47 1
    36   16   48 1
    37   17   18 1
    38   17   49 1
    39   17   50 1
    40   18   19 1
    41   18   51 1
    42   18   61 1
    43   19   20 1
    44   19   52 1
    45   19   53 1
    46   20   54 1
    47   20   55 1
    48   21   22 2
    49   21   23 1
    50   23   28 ar
    51   23   24 ar
    52   24   25 ar
    53   24   56 1
    54   25   26 ar
    55   25   57 1
    56   26   27 ar
    57   26   31 1
    58   27   28 ar
    59   27   30 1
    60   28   29 1
    61   31   58 1
    62   31   59 1
    63   31   60 1
@<TRIPOS>MOLECULE
ZINC52627156
   59    62     0     0     0
SMALL
USER_CHARGES

@<TRIPOS>ATOM
      1 C1          2.2694   -2.6129    0.2748 C.3       1 <0>        -0.1880
      2 C2          1.6059   -2.1788    1.5833 C.3       1 <0>         0.0895
      3 H1          2.0993   -2.6707    2.4215 H         1 <0>         0.1355
      4 C3          1.7283   -0.6616    1.7383 C.3       1 <0>        -0.0077
      5 H2          1.3280   -0.1722    0.8505 H         1 <0>         0.1487
      6 C4          3.2010   -0.2836    1.9088 C.3       1 <0>         0.0533
      7 O1          3.7757   -1.0671    2.9566 O.3       1 <0>        -0.5683
      8 N1          0.9713   -0.2276    2.9201 N.4       1 <0>        -0.3746
      9 C5          1.0582    1.2323    3.0459 C.3       1 <0>        -0.0127
     10 C6          0.2052    1.6979    4.2279 C.3       1 <0>        -0.1322
     11 C7          0.7206    1.0417    5.5120 C.3       1 <0>        -0.0246
     12 C8          0.6952   -0.4800    5.3417 C.3       1 <0>        -0.1395
     13 C9          1.5300   -0.8649    4.1185 C.3       1 <0>        -0.0135
     14 C10        -0.1628    1.4342    6.6681 C.2       1 <0>         0.1262
     15 N2         -1.2513    2.1220    6.6040 N.2       1 <0>        -0.4488
     16 C11        -1.8391    2.3234    7.8091 C.2       1 <0>         0.0951
     17 C12        -1.1307    1.7436    8.8148 C.2       1 <0>        -0.1100
     18 C13         0.0547    1.0904    8.1280 C.3       1 <0>        -0.1208
     19 C14        -1.4468    1.7439   10.2497 C.ar      1 <0>         0.0096
     20 C15        -0.6109    2.3914   11.1731 C.ar      1 <0>        -0.1610
     21 C16        -0.9473    2.3661   12.5091 C.ar      1 <0>         0.1069
     22 N3         -2.0360    1.7450   12.9233 N.ar      1 <0>        -0.4774
     23 C17        -2.8499    1.1236   12.0904 C.ar      1 <0>         0.1085
     24 C18        -2.5964    1.1018   10.7361 C.ar      1 <0>        -0.1515
     25 C19        -3.0956    3.0808    8.0058 C.ar      1 <0>        -0.0488
     26 C20        -3.1814    4.0460    9.0100 C.ar      1 <0>        -0.0653
     27 C21        -4.3543    4.7488    9.1891 C.ar      1 <0>        -0.1511
     28 C22        -5.4467    4.4980    8.3738 C.ar      1 <0>         0.1145
     29 C23        -5.3667    3.5404    7.3750 C.ar      1 <0>        -0.1547
     30 C24        -4.1965    2.8361    7.1839 C.ar      1 <0>        -0.0601
     31 F1         -6.5936    5.1889    8.5536 F         1 <0>        -0.1325
     32 O2          0.2249   -2.5456    1.5616 O.3       1 <0>        -0.5561
     33 H3          3.3066   -2.2780    0.2648 H         1 <0>         0.0786
     34 H4          2.2377   -3.6995    0.1943 H         1 <0>         0.0873
     35 H5          1.7366   -2.1706   -0.5670 H         1 <0>         0.0702
     36 H6          3.7351   -0.4740    0.9779 H         1 <0>         0.0978
     37 H7          3.2777    0.7738    2.1620 H         1 <0>         0.0771
     38 H8          4.7102   -0.8800    3.1204 H         1 <0>         0.4060
     39 H9          2.0962    1.5211    3.2114 H         1 <0>         0.1295
     40 H10         0.6941    1.6978    2.1300 H         1 <0>         0.1318
     41 H11         0.2725    2.7818    4.3207 H         1 <0>         0.1177
     42 H12        -0.8330    1.4098    4.0633 H         1 <0>         0.0979
     43 H13         1.7420    1.3699    5.7045 H         1 <0>         0.1121
     44 H14         1.1127   -0.9528    6.2307 H         1 <0>         0.1156
     45 H15        -0.3329   -0.8133    5.2003 H         1 <0>         0.0903
     46 H16         1.5142   -1.9477    3.9944 H         1 <0>         0.1330
     47 H17         2.5579   -0.5314    4.2611 H         1 <0>         0.1561
     48 H18         0.0410    0.0105    8.2757 H         1 <0>         0.1303
     49 H19         0.9901    1.5178    8.4892 H         1 <0>         0.1309
     50 H20         0.2817    2.9010   10.8417 H         1 <0>         0.1361
     51 H21        -0.3109    2.8612   13.2277 H         1 <0>         0.1614
     52 H22        -3.7294    0.6288   12.4753 H         1 <0>         0.1610
     53 H23        -3.2693    0.5953   10.0601 H         1 <0>         0.1345
     54 H24        -2.3308    4.2419    9.6460 H         1 <0>         0.1296
     55 H25        -4.4218    5.4958    9.9662 H         1 <0>         0.1414
     56 H26        -6.2207    3.3486    6.7424 H         1 <0>         0.1412
     57 H27        -4.1336    2.0933    6.4024 H         1 <0>         0.1330
     58 H28        -0.2775   -2.1435    0.8398 H         1 <0>         0.3871
     59 H29         0.0045   -0.4972    2.8167 H         1 <0>         0.4240
@<TRIPOS>BOND
     1    1    2 1
     2    1   33 1
     3    1   34 1
     4    1   35 1
     5    2    3 1
     6    2    4 1
     7    2   32 1
     8    4    5 1
     9    4    6 1
    10    4    8 1
    11    6    7 1
    12    6   36 1
    13    6   37 1
    14    7   38 1
    15    8   13 1
    16    8    9 1
    17    8   59 1
    18    9   10 1
    19    9   39 1
    20    9   40 1
    21   10   11 1
    22   10   41 1
    23   10   42 1
    24   11   12 1
    25   11   14 1
    26   11   43 1
    27   12   13 1
    28   12   44 1
    29   12   45 1
    30   13   46 1
    31   13   47 1
    32   14   18 1
    33   14   15 2
    34   15   16 1
    35   16   17 2
    36   16   25 1
    37   17   18 1
    38   17   19 1
    39   18   48 1
    40   18   49 1
    41   19   24 ar
    42   19   20 ar
    43   20   21 ar
    44   20   50 1
    45   21   22 ar
    46   21   51 1
    47   22   23 ar
    48   23   24 ar
    49   23   52 1
    50   24   53 1
    51   25   30 ar
    52   25   26 ar
    53   26   27 ar
    54   26   54 1
    55   27   28 ar
    56   27   55 1
    57   28   29 ar
    58   28   31 1
    59   29   30 ar
    60   29   56 1
    61   30   57 1
    62   32   58 1
@<TRIPOS>MOLECULE
ZINC65265969
   57    60     0     0     0
SMALL
USER_CHARGES

@<TRIPOS>ATOM
      1 C1          0.8521    1.2785   -0.3385 C.3       1 <0>        -0.1760
      2 C2         -0.0465    0.0795   -0.0287 C.3       1 <0>         0.1074
      3 C3          0.3079   -0.4806    1.3502 C.3       1 <0>        -0.1900
      4 C4         -1.5106    0.5236   -0.0379 C.3       1 <0>        -0.1697
      5 N1          0.1557   -0.9574   -1.0437 N.pl3     1 <0>        -0.5176
      6 C5          1.3485   -1.3856   -1.3020 C.cat     1 <0>         0.5686
      7 N2          2.4253   -1.0320   -0.5260 N.pl3     1 <0>        -0.7405
      8 C6          2.7672   -1.8377    0.5559 C.ar      1 <0>         0.1445
      9 C7          3.0660   -1.2623    1.7829 C.ar      1 <0>        -0.1281
     10 C8          3.4196   -2.0574    2.8546 C.ar      1 <0>        -0.0847
     11 C9          3.4738   -3.4301    2.6933 C.ar      1 <0>        -0.1089
     12 C10         3.1712   -4.0018    1.4765 C.ar      1 <0>        -0.0841
     13 C11         2.8053   -3.2160    0.3879 C.ar      1 <0>        -0.1481
     14 C12         2.4568   -3.9404   -0.8873 C.3       1 <0>         0.0779
     15 N3          2.7653   -3.1557   -2.0895 N.3       1 <0>        -0.6277
     16 C13         1.6221   -2.2927   -2.4533 C.3       1 <0>         0.0831
     17 C14         0.3952   -3.1575   -2.7991 C.3       1 <0>        -0.1349
     18 C15         0.6648   -3.4917   -4.2896 C.3       1 <0>         0.1101
     19 N4          1.2905   -2.2763   -4.8448 N.am      1 <0>        -0.6233
     20 C16         1.9171   -1.5240   -3.7438 C.3       1 <0>         0.1362
     21 C17         1.2889   -1.9144   -6.1430 C.2       1 <0>         0.5356
     22 O1          1.8378   -0.8892   -6.4874 O.2       1 <0>        -0.5101
     23 C18         0.6049   -2.7835   -7.1667 C.3       1 <0>        -0.0756
     24 C19         0.7472   -2.1594   -8.5311 C.2       1 <0>        -0.1171
     25 C20        -0.1988   -1.2649   -8.9954 C.2       1 <0>        -0.1507
     26 C21        -0.0410   -0.7217  -10.2272 C.2       1 <0>        -0.1691
     27 S1          1.4816   -1.4780  -10.7720 S.3       1 <0>         0.0567
     28 C22         1.8077   -2.4627   -9.3189 C.2       1 <0>        -0.1604
     29 H1          1.8951    0.9622   -0.3319 H         1 <0>         0.0726
     30 H2          0.5996    1.6776   -1.3209 H         1 <0>         0.0797
     31 H3          0.7016    2.0500    0.4167 H         1 <0>         0.1070
     32 H4         -0.2179    0.0860    2.1187 H         1 <0>         0.0974
     33 H5          0.0112   -1.5280    1.4042 H         1 <0>         0.0702
     34 H6          1.3830   -0.3988    1.5103 H         1 <0>         0.1012
     35 H7         -1.7631    0.9226   -1.0203 H         1 <0>         0.0791
     36 H8         -2.1507   -0.3306    0.1828 H         1 <0>         0.0794
     37 H9         -1.6610    1.2951    0.7172 H         1 <0>         0.1055
     38 H10        -0.6049   -1.3228   -1.5220 H         1 <0>         0.4396
     39 H11         3.0222   -0.1895    1.8996 H         1 <0>         0.1384
     40 H12         3.6514   -1.6117    3.8106 H         1 <0>         0.1409
     41 H13         3.7554   -4.0576    3.5260 H         1 <0>         0.1373
     42 H14         3.2188   -5.0751    1.3662 H         1 <0>         0.1370
     43 H15         3.0157   -4.8754   -0.9246 H         1 <0>         0.1199
     44 H16         1.3913   -4.1702   -0.8812 H         1 <0>         0.0901
     45 H17         3.6056   -2.6121   -1.9607 H         1 <0>         0.3706
     46 H18         0.3717   -4.0633   -2.1932 H         1 <0>         0.1199
     47 H19        -0.5282   -2.5894   -2.6864 H         1 <0>         0.0826
     48 H20         1.3454   -4.3392   -4.3709 H         1 <0>         0.0967
     49 H21        -0.2713   -3.7054   -4.8055 H         1 <0>         0.0961
     50 H22         1.4897   -0.5229   -3.6867 H         1 <0>         0.0782
     51 H23         2.9938   -1.4609   -3.9016 H         1 <0>         0.1028
     52 H24         1.0645   -3.7718   -7.1695 H         1 <0>         0.1078
     53 H25        -0.4522   -2.8751   -6.9175 H         1 <0>         0.1040
     54 H26        -1.0511   -1.0031   -8.3860 H         1 <0>         0.1295
     55 H27        -0.6727   -0.0150  -10.7449 H         1 <0>         0.1873
     56 H28         2.6347   -3.1281   -9.1198 H         1 <0>         0.1844
     57 H29         2.9384   -0.2341   -0.7285 H         1 <0>         0.4414
@<TRIPOS>BOND
     1    1    2 1
     2    1   29 1
     3    1   30 1
     4    1   31 1
     5    2    3 1
     6    2    4 1
     7    2    5 1
     8    3   32 1
     9    3   33 1
    10    3   34 1
    11    4   35 1
    12    4   36 1
    13    4   37 1
    14    5    6 2
    15    5   38 1
    16    6   16 1
    17    6    7 1
    18    7    8 1
    19    7   57 1
    20    8   13 ar
    21    8    9 ar
    22    9   10 ar
    23    9   39 1
    24   10   11 ar
    25   10   40 1
    26   11   12 ar
    27   11   41 1
    28   12   13 ar
    29   12   42 1
    30   13   14 1
    31   14   15 1
    32   14   43 1
    33   14   44 1
    34   15   16 1
    35   15   45 1
    36   16   20 1
    37   16   17 1
    38   17   18 1
    39   17   46 1
    40   17   47 1
    41   18   19 1
    42   18   48 1
    43   18   49 1
    44   19   20 1
    45   19   21 am
    46   20   50 1
    47   20   51 1
    48   21   22 2
    49   21   23 1
    50   23   24 1
    51   23   52 1
    52   23   53 1
    53   24   28 2
    54   24   25 1
    55   25   26 2
    56   25   54 1
    57   26   27 1
    58   26   55 1
    59   27   28 1
    60   28   56 1
@<TRIPOS>MOLECULE
ZINC06510544
   34    35     0     0     0
SMALL
USER_CHARGES
5-bromo-N'-(3-phenylsulfanylpropanoyl)thiophene-2-carbohydrazide
@<TRIPOS>ATOM
      1 C1         13.4324    5.3751   -0.0961 C.ar      1 <0>        -0.1230
      2 C2         14.1159    4.1728   -0.1091 C.ar      1 <0>        -0.1012
      3 C3         13.4193    2.9806   -0.1087 C.ar      1 <0>        -0.0994
      4 C4         12.0297    2.9898   -0.0956 C.ar      1 <0>        -0.0834
      5 C5         11.3461    4.1998   -0.0888 C.ar      1 <0>        -0.1324
      6 C6         12.0495    5.3881   -0.0835 C.ar      1 <0>        -0.1002
      7 S1         11.1365    1.4709   -0.0950 S.3       1 <0>        -0.1109
      8 C7          9.3969    1.9848   -0.0761 C.3       1 <0>        -0.0957
      9 C8          8.4991    0.7459   -0.0740 C.3       1 <0>        -0.1142
     10 C9          7.0539    1.1728   -0.0583 C.2       1 <0>         0.5230
     11 O1          6.7700    2.3519   -0.0497 O.2       1 <0>        -0.5321
     12 N1          6.0770    0.2444   -0.0539 N.am      1 <0>        -0.5173
     13 N2          4.7335    0.6412   -0.0394 N.am      1 <0>        -0.5180
     14 C10         3.7565   -0.2872   -0.0349 C.2       1 <0>         0.6098
     15 O2          4.0415   -1.4705   -0.0436 O.2       1 <0>        -0.5164
     16 C11         2.3517    0.1278   -0.0197 C.2       1 <0>        -0.2299
     17 C12         1.2088   -0.6570   -0.0130 C.2       1 <0>        -0.0574
     18 C13         0.0021   -0.0041    0.0020 C.2       1 <0>        -0.1335
     19 C14        -0.0164    1.3561    0.0095 C.2       1 <0>        -0.1832
     20 S2          1.6659    1.7747   -0.0043 S.3       1 <0>         0.2111
     21 Br1        -1.5140    2.5105    0.0233 Br        1 <0>         0.0557
     22 H1         13.9798    6.3060   -0.0961 H         1 <0>         0.1261
     23 H2         15.1959    4.1665   -0.1192 H         1 <0>         0.1292
     24 H3         13.9537    2.0422   -0.1188 H         1 <0>         0.1286
     25 H4         10.2662    4.2107   -0.0832 H         1 <0>         0.1251
     26 H5         11.5190    6.3287   -0.0738 H         1 <0>         0.1267
     27 H6          9.1857    2.5850   -0.9611 H         1 <0>         0.0994
     28 H7          9.2024    2.5760    0.8187 H         1 <0>         0.0994
     29 H8          8.7103    0.1457    0.8110 H         1 <0>         0.1152
     30 H9          8.6937    0.1547   -0.9689 H         1 <0>         0.1152
     31 H10         6.3041   -0.6987   -0.0608 H         1 <0>         0.4369
     32 H11         4.5064    1.5843   -0.0325 H         1 <0>         0.4325
     33 H12         1.2658   -1.7355   -0.0190 H         1 <0>         0.1603
     34 H13        -0.9219   -0.5632    0.0082 H         1 <0>         0.1538
@<TRIPOS>BOND
     1    1    6 ar
     2    1    2 ar
     3    1   22 1
     4    2    3 ar
     5    2   23 1
     6    3    4 ar
     7    3   24 1
     8    4    5 ar
     9    4    7 1
    10    5    6 ar
    11    5   25 1
    12    6   26 1
    13    7    8 1
    14    8    9 1
    15    8   27 1
    16    8   28 1
    17    9   10 1
    18    9   29 1
    19    9   30 1
    20   10   11 2
    21   10   12 am
    22   12   13 1
    23   12   31 1
    24   13   14 am
    25   13   32 1
    26   14   15 2
    27   14   16 1
    28   16   20 1
    29   16   17 2
    30   17   18 1
    31   17   33 1
    32   18   19 2
    33   18   34 1
    34   19   20 1
    35   19   21 1
@<TRIPOS>MOLECULE
ZINC24349385
   44    46     0     0     0
SMALL
USER_CHARGES
N-(3-acetamidophenyl)-2-(3-thienylmethylsulfanyl)benzamide
@<TRIPOS>ATOM
      1 C1         -1.1449   -1.3581    9.2218 C.3       1 <0>        -0.1721
      2 C2         -1.9056   -0.0625    9.1041 C.2       1 <0>         0.5123
      3 O1         -2.6381    0.2944   10.0024 O.2       1 <0>        -0.5315
      4 N1         -1.7718    0.6997    8.0006 N.am      1 <0>        -0.6861
      5 C3         -2.5495    1.8529    7.8483 C.ar      1 <0>         0.1669
      6 C4         -2.8678    2.6284    8.9564 C.ar      1 <0>        -0.1384
      7 C5         -3.6347    3.7676    8.8068 C.ar      1 <0>        -0.0820
      8 C6         -4.0878    4.1397    7.5556 C.ar      1 <0>        -0.1614
      9 C7         -3.7734    3.3684    6.4438 C.ar      1 <0>         0.1700
     10 C8         -3.0079    2.2202    6.5916 C.ar      1 <0>        -0.1483
     11 N2         -4.2327    3.7453    5.1778 N.am      1 <0>        -0.6800
     12 C9         -3.4813    3.4970    4.0868 C.2       1 <0>         0.5565
     13 O2         -2.3652    3.0300    4.2106 O.2       1 <0>        -0.4937
     14 C10        -4.0121    3.7912    2.7440 C.ar      1 <0>        -0.1325
     15 C11        -5.2939    4.3283    2.5966 C.ar      1 <0>        -0.0633
     16 C12        -5.7840    4.6015    1.3387 C.ar      1 <0>        -0.1365
     17 C13        -5.0126    4.3467    0.2152 C.ar      1 <0>        -0.0667
     18 C14        -3.7435    3.8222    0.3433 C.ar      1 <0>        -0.1455
     19 C15        -3.2330    3.5342    1.6042 C.ar      1 <0>        -0.0438
     20 S1         -1.6149    2.8572    1.7713 S.3       1 <0>         0.0122
     21 C16        -1.0225    2.7093    0.0631 C.3       1 <0>        -0.1053
     22 C17         0.3706    2.1345    0.0625 C.2       1 <0>        -0.1063
     23 C18         1.4728    2.9668    0.1191 C.2       1 <0>        -0.1483
     24 C19         2.7121    2.4179    0.1113 C.2       1 <0>        -0.1686
     25 S2          2.3427    0.6735    0.0218 S.3       1 <0>         0.0458
     26 C20         0.5616    0.7940    0.0009 C.2       1 <0>        -0.1567
     27 H1         -0.5388   -1.5109    8.3167 H         1 <0>         0.0795
     28 H2         -1.8546   -2.1912    9.3329 H         1 <0>         0.0993
     29 H3         -0.4861   -1.3178   10.1018 H         1 <0>         0.0990
     30 H4         -1.0512    0.4152    7.2197 H         1 <0>         0.4371
     31 H5         -2.5149    2.3405    9.9357 H         1 <0>         0.1378
     32 H6         -3.8804    4.3689    9.6697 H         1 <0>         0.1297
     33 H7         -4.6872    5.0308    7.4420 H         1 <0>         0.1259
     34 H8         -2.7656    1.6167    5.7294 H         1 <0>         0.1372
     35 H9         -5.2073    4.2444    5.0724 H         1 <0>         0.4324
     36 H10        -5.8994    4.5292    3.4681 H         1 <0>         0.1304
     37 H11        -6.7747    5.0169    1.2270 H         1 <0>         0.1334
     38 H12        -5.4064    4.5646   -0.7666 H         1 <0>         0.1320
     39 H13        -3.1474    3.6309   -0.5367 H         1 <0>         0.1307
     40 H14        -1.6934    2.0451   -0.5014 H         1 <0>         0.0939
     41 H15        -1.0092    3.7033   -0.4078 H         1 <0>         0.0935
     42 H16         1.3483    4.0385    0.1685 H         1 <0>         0.1358
     43 H17         3.6735    2.9084    0.1488 H         1 <0>         0.1881
     44 H18        -0.1730    0.0039   -0.0485 H         1 <0>         0.1874
@<TRIPOS>BOND
     1    1    2 1
     2    1   27 1
     3    1   28 1
     4    1   29 1
     5    2    3 2
     6    2    4 am
     7    4    5 1
     8    4   30 1
     9    5   10 ar
    10    5    6 ar
    11    6    7 ar
    12    6   31 1
    13    7    8 ar
    14    7   32 1
    15    8    9 ar
    16    8   33 1
    17    9   10 ar
    18    9   11 1
    19   10   34 1
    20   11   12 am
    21   11   35 1
    22   12   13 2
    23   12   14 1
    24   14   19 ar
    25   14   15 ar
    26   15   16 ar
    27   15   36 1
    28   16   17 ar
    29   16   37 1
    30   17   18 ar
    31   17   38 1
    32   18   19 ar
    33   18   39 1
    34   19   20 1
    35   20   21 1
    36   21   22 1
    37   21   40 1
    38   21   41 1
    39   22   26 2
    40   22   23 1
    41   23   24 2
    42   23   42 1
    43   24   25 1
    44   24   43 1
    45   25   26 1
    46   26   44 1
@<TRIPOS>MOLECULE
ZINC37885110
   44    45     0     0     0
SMALL
USER_CHARGES

@<TRIPOS>ATOM
      1 C1         -0.0187    1.5258    0.0104 C.3       1 <0>        -0.1469
      2 C2          0.0021   -0.0041    0.0020 C.3       1 <0>        -0.0864
      3 H1         -1.0205   -0.3814    0.0098 H         1 <0>         0.0789
      4 C3          0.7182   -0.4975   -1.2568 C.3       1 <0>        -0.1111
      5 C4          0.7390   -2.0273   -1.2652 C.3       1 <0>        -0.1197
      6 C5          1.4790   -2.5342   -0.0257 C.3       1 <0>        -0.1143
      7 C6          0.7628   -2.0407    1.2331 C.3       1 <0>        -0.1407
      8 C7          0.7421   -0.5109    1.2415 C.3       1 <0>         0.0945
      9 H2          0.2319   -0.1594    2.1383 H         1 <0>         0.0579
     10 O1          2.0827   -0.0163    1.2314 O.3       1 <0>        -0.3590
     11 C8          2.6404    0.1779    2.5327 C.3       1 <0>         0.0335
     12 C9          4.0702    0.7065    2.4010 C.3       1 <0>         0.1006
     13 H3          4.0691    1.6088    1.7896 H         1 <0>         0.1126
     14 C10         4.6234    1.0322    3.7898 C.3       1 <0>         0.0928
     15 N1          5.9455    1.6491    3.6565 N.pl3     1 <0>        -0.7381
     16 C11         6.6538    2.0363    4.7967 C.ar      1 <0>         0.2473
     17 C12         6.1085    1.8319    6.0578 C.ar      1 <0>        -0.1955
     18 C13         6.8115    2.2153    7.1829 C.ar      1 <0>        -0.0526
     19 C14         8.0573    2.8024    7.0554 C.ar      1 <0>        -0.1753
     20 C15         8.6032    3.0079    5.8018 C.ar      1 <0>        -0.0371
     21 C16         7.9078    2.6214    4.6721 C.ar      1 <0>        -0.1773
     22 I1          8.7395    2.9253    2.7734 I         1 <0>        -0.0465
     23 O2          4.8903   -0.2870    1.7826 O.3       1 <0>        -0.5441
     24 H4          1.0039    1.9031    0.0027 H         1 <0>         0.0626
     25 H5         -0.5459    1.8868   -0.8726 H         1 <0>         0.0552
     26 H6         -0.5289    1.8773    0.9072 H         1 <0>         0.0501
     27 H7          0.1910   -0.1364   -2.1398 H         1 <0>         0.0593
     28 H8          1.7408   -0.1202   -1.2645 H         1 <0>         0.0720
     29 H9         -0.2836   -2.4046   -1.2575 H         1 <0>         0.0577
     30 H10         1.2492   -2.3788   -2.1620 H         1 <0>         0.0616
     31 H11         1.4937   -3.6240   -0.0317 H         1 <0>         0.0573
     32 H12         2.5015   -2.1569   -0.0334 H         1 <0>         0.0720
     33 H13        -0.2598   -2.4180    1.2409 H         1 <0>         0.0698
     34 H14         1.2900   -2.4018    2.1162 H         1 <0>         0.0604
     35 H15         2.0359    0.8986    3.0832 H         1 <0>         0.0592
     36 H16         2.6519   -0.7713    3.0684 H         1 <0>         0.0539
     37 H17         3.9495    1.7231    4.2965 H         1 <0>         0.0742
     38 H18         4.7077    0.1144    4.3718 H         1 <0>         0.0688
     39 H19         6.3290    1.7886    2.7766 H         1 <0>         0.4078
     40 H20         5.1356    1.3738    6.1583 H         1 <0>         0.1268
     41 H21         6.3878    2.0569    8.1636 H         1 <0>         0.1276
     42 H22         8.6048    3.1013    7.9370 H         1 <0>         0.1274
     43 H23         9.5759    3.4672    5.7057 H         1 <0>         0.1279
     44 H24         4.9377   -1.1190    2.2732 H         1 <0>         0.3751
@<TRIPOS>BOND
     1    1    2 1
     2    1   24 1
     3    1   25 1
     4    1   26 1
     5    2    3 1
     6    2    8 1
     7    2    4 1
     8    4    5 1
     9    4   27 1
    10    4   28 1
    11    5    6 1
    12    5   29 1
    13    5   30 1
    14    6    7 1
    15    6   31 1
    16    6   32 1
    17    7    8 1
    18    7   33 1
    19    7   34 1
    20    8    9 1
    21    8   10 1
    22   10   11 1
    23   11   12 1
    24   11   35 1
    25   11   36 1
    26   12   13 1
    27   12   14 1
    28   12   23 1
    29   14   15 1
    30   14   37 1
    31   14   38 1
    32   15   16 1
    33   15   39 1
    34   16   21 ar
    35   16   17 ar
    36   17   18 ar
    37   17   40 1
    38   18   19 ar
    39   18   41 1
    40   19   20 ar
    41   19   42 1
    42   20   21 ar
    43   20   43 1
    44   21   22 1
    45   23   44 1
@<TRIPOS>MOLECULE
ZINC49081572
   39    39     0     0     0
SMALL
USER_CHARGES

@<TRIPOS>ATOM
      1 C1          0.0085    1.5031    0.0097 C.3       1 <0>        -0.1289
      2 C2          0.0215   -0.0038    0.0013 C.ar      1 <0>        -0.0634
      3 C3          0.7767   -0.6925    0.9328 C.ar      1 <0>        -0.0950
      4 C4          0.7908   -2.0734    0.9279 C.ar      1 <0>        -0.0973
      5 C5          0.0454   -2.7710   -0.0138 C.ar      1 <0>         0.1439
      6 C6         -0.7121   -2.0772   -0.9479 C.ar      1 <0>        -0.1069
      7 C7         -0.7265   -0.6954   -0.9344 C.ar      1 <0>        -0.0856
      8 I1         -1.8762    0.3531   -2.3373 I         1 <0>        -0.0331
      9 N1          0.0581   -4.1702   -0.0215 N.am      1 <0>        -0.6697
     10 C8          0.1745   -4.8493    1.1368 C.2       1 <0>         0.5323
     11 O1          0.1720   -4.2525    2.1927 O.2       1 <0>        -0.4926
     12 C9          0.3079   -6.3503    1.1200 C.3       1 <0>        -0.1313
     13 S1          0.4446   -6.9643    2.8215 S.3       1 <0>        -0.1734
     14 C10         0.5960   -8.7617    2.6286 C.3       1 <0>        -0.1036
     15 C11         0.7206   -9.4138    4.0071 C.3       1 <0>        -0.1145
     16 C12         0.8483  -10.9297    3.8444 C.3       1 <0>         0.1225
     17 N2          0.9676  -11.5542    5.1643 N.am      1 <0>        -0.7335
     18 C13         1.0922  -12.8921    5.2680 C.2       1 <0>         0.5102
     19 O2          1.1055  -13.5792    4.2687 O.2       1 <0>        -0.5461
     20 C14         1.2149  -13.5345    6.6257 C.3       1 <0>        -0.1738
     21 H1         -0.7936    1.8559    0.6580 H         1 <0>         0.0794
     22 H2          0.9645    1.8726    0.3804 H         1 <0>         0.0751
     23 H3         -0.1550    1.8706   -1.0034 H         1 <0>         0.0759
     24 H4          1.3565   -0.1498    1.6647 H         1 <0>         0.1365
     25 H5          1.3812   -2.6105    1.6555 H         1 <0>         0.1414
     26 H6         -1.2925   -2.6167   -1.6817 H         1 <0>         0.1330
     27 H7         -0.0169   -4.6513   -0.8604 H         1 <0>         0.4141
     28 H8         -0.5704   -6.7879    0.6454 H         1 <0>         0.1156
     29 H9          1.2005   -6.6296    0.5602 H         1 <0>         0.1167
     30 H10        -0.2883   -9.1485    2.1223 H         1 <0>         0.0870
     31 H11         1.4825   -8.9902    2.0371 H         1 <0>         0.0870
     32 H12         1.6049   -9.0269    4.5134 H         1 <0>         0.0819
     33 H13        -0.1659   -9.1852    4.5986 H         1 <0>         0.0819
     34 H14        -0.0361  -11.3166    3.3381 H         1 <0>         0.0702
     35 H15         1.7348  -11.1583    3.2529 H         1 <0>         0.0704
     36 H16         0.9569  -11.0047    5.9636 H         1 <0>         0.4032
     37 H17         0.2221  -13.7807    7.0023 H         1 <0>         0.0950
     38 H18         1.8088  -14.4448    6.5447 H         1 <0>         0.0945
     39 H19         1.7025  -12.8425    7.3123 H         1 <0>         0.0807
@<TRIPOS>BOND
     1    1    2 1
     2    1   21 1
     3    1   22 1
     4    1   23 1
     5    2    7 ar
     6    2    3 ar
     7    3    4 ar
     8    3   24 1
     9    4    5 ar
    10    4   25 1
    11    5    6 ar
    12    5    9 1
    13    6    7 ar
    14    6   26 1
    15    7    8 1
    16    9   10 am
    17    9   27 1
    18   10   11 2
    19   10   12 1
    20   12   13 1
    21   12   28 1
    22   12   29 1
    23   13   14 1
    24   14   15 1
    25   14   30 1
    26   14   31 1
    27   15   16 1
    28   15   32 1
    29   15   33 1
    30   16   17 1
    31   16   34 1
    32   16   35 1
    33   17   18 am
    34   17   36 1
    35   18   19 2
    36   18   20 1
    37   20   37 1
    38   20   38 1
    39   20   39 1
@<TRIPOS>MOLECULE
ZINC61975989
   43    44     0     0     0
SMALL
USER_CHARGES

@<TRIPOS>ATOM
      1 C1         -0.3535    2.0327   -0.1641 C.3       1 <0>        -0.1461
      2 C2         -0.1398    0.5251   -0.0139 C.3       1 <0>         0.1300
      3 C3          0.5896    0.2420    1.3008 C.3       1 <0>        -0.1385
      4 C4          1.8881    1.0499    1.3479 C.3       1 <0>        -0.0780
      5 C5          2.6066    0.7710    2.6429 C.ar      1 <0>        -0.0832
      6 C6          2.3486    1.5468    3.7575 C.ar      1 <0>        -0.1190
      7 C7          3.0077    1.2910    4.9454 C.ar      1 <0>        -0.1183
      8 C8          3.9245    0.2590    5.0188 C.ar      1 <0>        -0.1252
      9 C9          4.1818   -0.5175    3.9044 C.ar      1 <0>        -0.1178
     10 C10         3.5196   -0.2644    2.7177 C.ar      1 <0>        -0.1178
     11 C11        -1.4956   -0.1840   -0.0079 C.3       1 <0>         0.0899
     12 N1         -2.1940    0.0871   -1.2668 N.pl3     1 <0>        -1.1024
     13 S1         -3.5082   -0.8239   -1.6974 S.o2      1 <0>         2.6871
     14 O1         -3.9703   -0.3088   -2.9386 O.2       1 <0>        -0.9361
     15 O2         -3.1322   -2.1839   -1.5296 O.2       1 <0>        -0.9524
     16 C12        -4.7750   -0.5021   -0.5157 C.ar      1 <0>        -0.6585
     17 C13        -5.2326   -1.5189    0.3014 C.ar      1 <0>        -0.0161
     18 C14        -6.2260   -1.2664    1.2287 C.ar      1 <0>        -0.1236
     19 C15        -6.7624    0.0031    1.3396 C.ar      1 <0>        -0.0578
     20 C16        -6.3055    1.0202    0.5232 C.ar      1 <0>        -0.1096
     21 C17        -5.3075    0.7692   -0.4015 C.ar      1 <0>        -0.0035
     22 Br1        -4.6769    2.1622   -1.5141 Br        1 <0>        -0.0191
     23 O3          0.6446    0.0440   -1.1071 O.3       1 <0>        -0.5496
     24 H1          0.6123    2.5379   -0.1684 H         1 <0>         0.0731
     25 H2         -0.8732    2.2344   -1.1008 H         1 <0>         0.0645
     26 H3         -0.9519    2.3997    0.6697 H         1 <0>         0.0737
     27 H4         -0.0467    0.5279    2.1383 H         1 <0>         0.0766
     28 H5          0.8207   -0.8212    1.3665 H         1 <0>         0.0725
     29 H6          2.5245    0.7640    0.5104 H         1 <0>         0.0805
     30 H7          1.6571    2.1131    1.2823 H         1 <0>         0.0770
     31 H8          1.6324    2.3531    3.7002 H         1 <0>         0.1202
     32 H9          2.8066    1.8976    5.8160 H         1 <0>         0.1211
     33 H10         4.4399    0.0595    5.9466 H         1 <0>         0.1207
     34 H11         4.8983   -1.3235    3.9616 H         1 <0>         0.1214
     35 H12         3.7179   -0.8733    1.8481 H         1 <0>         0.1211
     36 H13        -1.3433   -1.2580    0.0991 H         1 <0>         0.0849
     37 H14        -2.0939    0.1830    0.8259 H         1 <0>         0.0739
     38 H15        -1.8868    0.8002   -1.8481 H         1 <0>         0.4242
     39 H16        -4.8142   -2.5108    0.2149 H         1 <0>         0.1527
     40 H17        -6.5835   -2.0612    1.8667 H         1 <0>         0.1422
     41 H18        -7.5388    0.1998    2.0641 H         1 <0>         0.1424
     42 H19        -6.7245    2.0118    0.6099 H         1 <0>         0.1436
     43 H20         0.8199   -0.9065   -1.0771 H         1 <0>         0.3794
@<TRIPOS>BOND
     1    1    2 1
     2    1   24 1
     3    1   25 1
     4    1   26 1
     5    2    3 1
     6    2   11 1
     7    2   23 1
     8    3    4 1
     9    3   27 1
    10    3   28 1
    11    4    5 1
    12    4   29 1
    13    4   30 1
    14    5   10 ar
    15    5    6 ar
    16    6    7 ar
    17    6   31 1
    18    7    8 ar
    19    7   32 1
    20    8    9 ar
    21    8   33 1
    22    9   10 ar
    23    9   34 1
    24   10   35 1
    25   11   12 1
    26   11   36 1
    27   11   37 1
    28   12   13 1
    29   12   38 1
    30   13   14 2
    31   13   15 2
    32   13   16 1
    33   16   21 ar
    34   16   17 ar
    35   17   18 ar
    36   17   39 1
    37   18   19 ar
    38   18   40 1
    39   19   20 ar
    40   19   41 1
    41   20   21 ar
    42   20   42 1
    43   21   22 1
    44   23   43 1
@<TRIPOS>MOLECULE
ZINC19986662
   34    35     0     0     0
SMALL
USER_CHARGES
4-[(2-chlorophenyl)methylsulfamoyl]benzenecarbothioamide
@<TRIPOS>ATOM
      1 C1          2.3773    1.4115   -0.0135 C.ar      1 <0>        -0.1138
      2 C2          2.3967    0.0290   -0.0207 C.ar      1 <0>        -0.0989
      3 C3          1.2100   -0.6790   -0.0131 C.ar      1 <0>        -0.1107
      4 C4          0.0021   -0.0041    0.0020 C.ar      1 <0>        -0.0259
      5 C5         -0.0167    1.3791    0.0096 C.ar      1 <0>        -0.0896
      6 C6          1.1711    2.0862    0.0021 C.ar      1 <0>        -0.0873
      7 C7         -1.3318    2.1149    0.0198 C.3       1 <0>         0.1548
      8 N1         -1.8686    2.1367    1.3828 N.pl3     1 <0>        -1.1140
      9 S1         -3.0960    3.1778    1.7727 S.o2      1 <0>         2.6916
     10 O1         -3.4087    2.9434    3.1389 O.2       1 <0>        -0.9484
     11 O2         -2.7128    4.4572    1.2876 O.2       1 <0>        -0.9487
     12 C8         -4.5096    2.6887    0.8415 C.ar      1 <0>        -0.6588
     13 C9         -4.7298    3.2313   -0.4122 C.ar      1 <0>        -0.0249
     14 C10        -5.8313    2.8487   -1.1490 C.ar      1 <0>        -0.1103
     15 C11        -6.7315    1.9201   -0.6221 C.ar      1 <0>        -0.0511
     16 C12        -6.5061    1.3808    0.6462 C.ar      1 <0>        -0.0722
     17 C13        -5.3974    1.7681    1.3697 C.ar      1 <0>        -0.0198
     18 C14        -7.9156    1.5100   -1.4025 C.2       1 <0>         0.3873
     19 S2         -9.3903    1.1664   -0.6037 S.2       1 <0>        -0.5492
     20 N2         -7.8357    1.4061   -2.7439 N.pl3     1 <0>        -0.7780
     21 Cl1        -1.4892   -0.8928    0.0109 Cl        1 <0>        -0.0642
     22 H1          3.3050    1.9644   -0.0201 H         1 <0>         0.1331
     23 H2          3.3395   -0.4977   -0.0325 H         1 <0>         0.1346
     24 H3          1.2252   -1.7589   -0.0194 H         1 <0>         0.1359
     25 H4          1.1566    3.1661    0.0077 H         1 <0>         0.1374
     26 H5         -1.1776    3.1463   -0.3301 H         1 <0>         0.0985
     27 H6         -2.0429    1.6042   -0.6462 H         1 <0>         0.0752
     28 H7         -1.5767    1.3567    2.1014 H         1 <0>         0.4460
     29 H8         -4.0351    3.9527   -0.8166 H         1 <0>         0.1494
     30 H9         -5.9997    3.2697   -2.1292 H         1 <0>         0.1371
     31 H10        -7.1980    0.6619    1.0594 H         1 <0>         0.1539
     32 H11        -5.2216    1.3516    2.3505 H         1 <0>         0.1518
     33 H12        -8.7180    1.1005   -3.3254 H         1 <0>         0.4538
     34 H13        -6.8882    1.6269   -3.2572 H         1 <0>         0.4254
@<TRIPOS>BOND
     1    1    6 ar
     2    1    2 ar
     3    1   22 1
     4    2    3 ar
     5    2   23 1
     6    3    4 ar
     7    3   24 1
     8    4    5 ar
     9    4   21 1
    10    5    6 ar
    11    5    7 1
    12    6   25 1
    13    7    8 1
    14    7   26 1
    15    7   27 1
    16    8    9 1
    17    8   28 1
    18    9   10 2
    19    9   11 2
    20    9   12 1
    21   12   17 ar
    22   12   13 ar
    23   13   14 ar
    24   13   29 1
    25   14   15 ar
    26   14   30 1
    27   15   16 ar
    28   15   18 1
    29   16   17 ar
    30   16   31 1
    31   17   32 1
    32   18   19 2
    33   18   20 1
    34   20   33 1
    35   20   34 1
@<TRIPOS>MOLECULE
ZINC37205690
   38    38     0     0     0
SMALL
USER_CHARGES

@<TRIPOS>ATOM
      1 C1          0.0224    1.5236    0.0319 C.3       1 <0>        -0.1298
      2 C2          0.0139   -0.0061    0.0082 C.3       1 <0>        -0.1077
      3 H1         -1.0110   -0.3653    0.1021 H         1 <0>         0.1137
      4 C3          0.8373   -0.5309    1.1560 C.2       1 <0>         0.5108
      5 O1          2.0016   -0.8232    0.9833 O.2       1 <0>        -0.5062
      6 N1          0.2798   -0.6755    2.3746 N.am      1 <0>        -0.7263
      7 C4          1.0803   -1.1856    3.4904 C.3       1 <0>         0.1224
      8 C5          0.2150   -1.2519    4.7505 C.3       1 <0>        -0.1313
      9 C6          1.0509   -1.7847    5.9159 C.3       1 <0>         0.0636
     10 O2          0.2427   -1.8465    7.0927 O.3       1 <0>        -0.3925
     11 C7          0.9316   -2.3339    8.2460 C.3       1 <0>         0.0312
     12 S1          0.7182   -0.5905   -1.5581 S.3       1 <0>        -0.0531
     13 C8          0.4054   -2.3245   -1.5455 C.ar      1 <0>        -0.1507
     14 C9         -0.3537   -2.8869   -0.5297 C.ar      1 <0>        -0.0791
     15 C10        -0.5979   -4.2476   -0.5216 C.ar      1 <0>        -0.1287
     16 C11        -0.0876   -5.0520   -1.5249 C.ar      1 <0>        -0.0438
     17 C12         0.6702   -4.4991   -2.5419 C.ar      1 <0>        -0.1546
     18 C13         0.9158   -3.1347   -2.5602 C.ar      1 <0>         0.2472
     19 N2          1.6782   -2.5724   -3.5910 N.pl3     1 <0>        -0.8653
     20 Br1        -0.4260   -6.9124   -1.5057 Br        1 <0>        -0.0464
     21 H2          1.0520    1.8814    0.0260 H         1 <0>         0.0743
     22 H3         -0.4993    1.9036   -0.8466 H         1 <0>         0.0833
     23 H4         -0.4796    1.8758    0.9331 H         1 <0>         0.0813
     24 H5         -0.6514   -0.4417    2.5127 H         1 <0>         0.4025
     25 H6          1.4467   -2.1833    3.2485 H         1 <0>         0.0723
     26 H7          1.9259   -0.5204    3.6650 H         1 <0>         0.0723
     27 H8         -0.1515   -0.2542    4.9924 H         1 <0>         0.0797
     28 H9         -0.6307   -1.9171    4.5759 H         1 <0>         0.0797
     29 H10         1.4174   -2.7823    5.6739 H         1 <0>         0.0539
     30 H11         1.8966   -1.1194    6.0904 H         1 <0>         0.0536
     31 H12         1.7748   -1.6800    8.4688 H         1 <0>         0.0430
     32 H13         0.2500   -2.3504    9.0964 H         1 <0>         0.0884
     33 H14         1.2956   -3.3429    8.0524 H         1 <0>         0.0432
     34 H15        -0.7536   -2.2619    0.2550 H         1 <0>         0.1227
     35 H16        -1.1885   -4.6840    0.2703 H         1 <0>         0.1326
     36 H17         1.0675   -5.1298   -3.3234 H         1 <0>         0.1371
     37 H18         1.8522   -1.6182   -3.6004 H         1 <0>         0.4030
     38 H19         2.0323   -3.1370   -4.2958 H         1 <0>         0.4039
@<TRIPOS>BOND
     1    1    2 1
     2    1   21 1
     3    1   22 1
     4    1   23 1
     5    2    3 1
     6    2    4 1
     7    2   12 1
     8    4    5 2
     9    4    6 am
    10    6    7 1
    11    6   24 1
    12    7    8 1
    13    7   25 1
    14    7   26 1
    15    8    9 1
    16    8   27 1
    17    8   28 1
    18    9   10 1
    19    9   29 1
    20    9   30 1
    21   10   11 1
    22   11   31 1
    23   11   32 1
    24   11   33 1
    25   12   13 1
    26   13   18 ar
    27   13   14 ar
    28   14   15 ar
    29   14   34 1
    30   15   16 ar
    31   15   35 1
    32   16   17 ar
    33   16   20 1
    34   17   18 ar
    35   17   36 1
    36   18   19 1
    37   19   37 1
    38   19   38 1
@<TRIPOS>MOLECULE
ZINC40968315
   36    37     0     0     0
SMALL
USER_CHARGES

@<TRIPOS>ATOM
      1 C1         -0.0327    1.4215    0.0081 C.2       1 <0>        -0.1833
      2 C2          1.1721    2.0990    0.0012 C.2       1 <0>        -0.0537
      3 C3          2.3260    1.3879   -0.0150 C.2       1 <0>        -0.5267
      4 S1          1.7240   -0.2928   -0.0209 S.3       1 <0>         0.0921
      5 C4         -0.0247    0.0661   -0.0014 C.2       1 <0>        -0.1492
      6 S2          3.9887    1.9711   -0.0276 S.o       1 <0>         1.3869
      7 O1          4.7222    0.9057   -0.6159 O.2       1 <0>        -0.8365
      8 C5          4.4202    2.1045    1.7293 C.3       1 <0>        -0.4651
      9 C6          5.8588    2.6076    1.8643 C.3       1 <0>        -0.0862
     10 C7          6.2228    2.7202    3.3461 C.3       1 <0>        -0.1337
     11 C8          7.6397    3.2157    3.4791 C.2       1 <0>         0.5135
     12 O2          8.2941    3.4553    2.4862 O.2       1 <0>        -0.5203
     13 N1          8.1799    3.3927    4.7011 N.am      1 <0>        -0.6693
     14 C9          9.5264    3.7630    4.8255 C.ar      1 <0>         0.0933
     15 C10        10.1037    4.6072    3.8866 C.ar      1 <0>        -0.0576
     16 C11        11.4296    4.9721    4.0088 C.ar      1 <0>        -0.1750
     17 C12        12.1867    4.4948    5.0711 C.ar      1 <0>         0.2177
     18 C13        11.6098    3.6507    6.0108 C.ar      1 <0>        -0.1759
     19 C14        10.2814    3.2897    5.8915 C.ar      1 <0>        -0.0117
     20 Cl1         9.5578    2.2398    7.0695 Cl        1 <0>        -0.0652
     21 N2         13.5304    4.8640    5.1940 N.pl3     1 <0>        -0.8741
     22 H1         -0.9664    1.9640    0.0254 H         1 <0>         0.1405
     23 H2          1.1938    3.1787    0.0081 H         1 <0>         0.1472
     24 H3         -0.8596   -0.6190    0.0022 H         1 <0>         0.1891
     25 H4          3.7429    2.8053    2.2175 H         1 <0>         0.1206
     26 H5          4.3319    1.1256    2.2005 H         1 <0>         0.0908
     27 H6          6.5361    1.9069    1.3760 H         1 <0>         0.0773
     28 H7          5.9471    3.5865    1.3931 H         1 <0>         0.0858
     29 H8          5.5455    3.4209    3.8343 H         1 <0>         0.1019
     30 H9          6.1345    1.7413    3.8173 H         1 <0>         0.0976
     31 H10         7.6370    3.2639    5.4946 H         1 <0>         0.4108
     32 H11         9.5156    4.9784    3.0603 H         1 <0>         0.1498
     33 H12        11.8784    5.6286    3.2780 H         1 <0>         0.1312
     34 H13        12.1984    3.2794    6.8367 H         1 <0>         0.1350
     35 H14        13.9334    5.4533    4.5374 H         1 <0>         0.4019
     36 H15        14.0590    4.5306    5.9358 H         1 <0>         0.4003
@<TRIPOS>BOND
     1    1    5 2
     2    1    2 1
     3    1   22 1
     4    2    3 2
     5    2   23 1
     6    3    4 1
     7    3    6 1
     8    4    5 1
     9    5   24 1
    10    6    7 2
    11    6    8 1
    12    8    9 1
    13    8   25 1
    14    8   26 1
    15    9   10 1
    16    9   27 1
    17    9   28 1
    18   10   11 1
    19   10   29 1
    20   10   30 1
    21   11   12 2
    22   11   13 am
    23   13   14 1
    24   13   31 1
    25   14   19 ar
    26   14   15 ar
    27   15   16 ar
    28   15   32 1
    29   16   17 ar
    30   16   33 1
    31   17   18 ar
    32   17   21 1
    33   18   19 ar
    34   18   34 1
    35   19   20 1
    36   21   35 1
    37   21   36 1
@<TRIPOS>MOLECULE
ZINC50399319
   37    37     0     0     0
SMALL
USER_CHARGES

@<TRIPOS>ATOM
      1 C1         -2.4846    0.0411    1.7228 C.3       1 <0>        -0.1532
      2 C2         -1.6890   -1.2201    1.3803 C.3       1 <0>        -0.1258
      3 C3         -0.2971   -1.1316    2.0093 C.3       1 <0>        -0.1309
      4 C4          0.4985   -2.3928    1.6668 C.3       1 <0>         0.1555
      5 H1         -0.0640   -3.2729    1.9783 H         1 <0>         0.0867
      6 C5          1.8427   -2.3618    2.3970 C.3       1 <0>        -0.1309
      7 C6          2.6774   -3.5745    1.9804 C.3       1 <0>        -0.1643
      8 N1          0.7292   -2.4471    0.2211 N.pl3     1 <0>        -1.1052
      9 S1         -0.0399   -3.5902   -0.6977 S.o2      1 <0>         2.6865
     10 O1         -1.4082   -3.5654   -0.3152 O.2       1 <0>        -0.9530
     11 O2          0.3800   -3.3826   -2.0393 O.2       1 <0>        -0.9454
     12 C7          0.5910   -5.1614   -0.2100 C.ar      1 <0>        -0.7160
     13 C8         -0.2201   -6.0488    0.4733 C.ar      1 <0>         0.0334
     14 C9          0.2711   -7.2808    0.8575 C.ar      1 <0>        -0.2054
     15 C10         1.5820   -7.6293    0.5565 C.ar      1 <0>         0.2749
     16 C11         2.3945   -6.7366   -0.1302 C.ar      1 <0>        -0.1890
     17 C12         1.8952   -5.5070   -0.5165 C.ar      1 <0>         0.0517
     18 Br1         2.9977   -4.2933   -1.4584 Br        1 <0>        -0.0166
     19 N2          2.0818   -8.8746    0.9442 N.pl3     1 <0>        -0.8608
     20 H2         -1.9645    0.9159    1.3325 H         1 <0>         0.0513
     21 H3         -3.4762   -0.0220    1.2747 H         1 <0>         0.0540
     22 H4         -2.5798    0.1279    2.8051 H         1 <0>         0.0520
     23 H5         -2.2091   -2.0949    1.7706 H         1 <0>         0.0687
     24 H6         -1.5938   -1.3069    0.2980 H         1 <0>         0.0643
     25 H7          0.2230   -0.2568    1.6190 H         1 <0>         0.0694
     26 H8         -0.3923   -1.0448    3.0916 H         1 <0>         0.0744
     27 H9          2.3760   -1.4473    2.1377 H         1 <0>         0.0706
     28 H10         1.6723   -2.3904    3.4732 H         1 <0>         0.0742
     29 H11         2.9732   -3.4707    0.9365 H         1 <0>         0.0626
     30 H12         3.5678   -3.6349    2.6061 H         1 <0>         0.0550
     31 H13         2.0857   -4.4819    2.1019 H         1 <0>         0.0525
     32 H14         1.3324   -1.8135   -0.1979 H         1 <0>         0.4190
     33 H15        -1.2391   -5.7777    0.7072 H         1 <0>         0.1511
     34 H16        -0.3630   -7.9729    1.3917 H         1 <0>         0.1371
     35 H17         3.4140   -7.0043   -0.3654 H         1 <0>         0.1393
     36 H18         1.5135   -9.4972    1.4241 H         1 <0>         0.4067
     37 H19         2.9971   -9.1168    0.7336 H         1 <0>         0.4055
@<TRIPOS>BOND
     1    1    2 1
     2    1   20 1
     3    1   21 1
     4    1   22 1
     5    2    3 1
     6    2   23 1
     7    2   24 1
     8    3    4 1
     9    3   25 1
    10    3   26 1
    11    4    5 1
    12    4    6 1
    13    4    8 1
    14    6    7 1
    15    6   27 1
    16    6   28 1
    17    7   29 1
    18    7   30 1
    19    7   31 1
    20    8    9 1
    21    8   32 1
    22    9   10 2
    23    9   11 2
    24    9   12 1
    25   12   17 ar
    26   12   13 ar
    27   13   14 ar
    28   13   33 1
    29   14   15 ar
    30   14   34 1
    31   15   16 ar
    32   15   19 1
    33   16   17 ar
    34   16   35 1
    35   17   18 1
    36   19   36 1
    37   19   37 1
@<TRIPOS>MOLECULE
ZINC67196271
   31    32     0     0     0
SMALL
USER_CHARGES

@<TRIPOS>ATOM
      1 C1         -2.9924    3.8022   -2.4952 C.1       1 <0>        -0.1652
      2 C2         -2.1226    3.5107   -1.7626 C.1       1 <0>        -0.1526
      3 C3         -1.0616    3.1551   -0.8690 C.ar      1 <0>         0.0227
      4 C4         -1.2168    2.0823    0.0105 C.ar      1 <0>        -0.0878
      5 C5         -0.1928    1.7413    0.8704 C.ar      1 <0>        -0.1095
      6 C6          0.9885    2.4593    0.8649 C.ar      1 <0>        -0.1119
      7 C7          1.1527    3.5289   -0.0068 C.ar      1 <0>         0.1226
      8 C8          0.1318    3.8757   -0.8786 C.ar      1 <0>        -0.0505
      9 N1          2.3501    4.2525   -0.0086 N.pl3     1 <0>        -0.6312
     10 C9          2.3251    5.5967   -0.1028 C.2       1 <0>         0.5514
     11 S1          0.8291    6.4288   -0.0771 S.2       1 <0>        -0.5491
     12 N2          3.4776    6.2859   -0.2173 N.pl3     1 <0>        -0.4564
     13 N3          4.7018    5.6049   -0.2383 N.am      1 <0>        -0.5474
     14 C10         5.8544    6.2940   -0.3527 C.2       1 <0>         0.6112
     15 O1          5.8318    7.5080   -0.4378 O.2       1 <0>        -0.4791
     16 C11         7.1343    5.5821   -0.3747 C.2       1 <0>        -0.2475
     17 C12         8.4192    6.0957   -0.4784 C.2       1 <0>        -0.0293
     18 C13         9.4346    5.1682   -0.4712 C.2       1 <0>        -0.1672
     19 C14         9.1246    3.8527   -0.3666 C.2       1 <0>        -0.1962
     20 S2          7.4478    3.8305   -0.2673 S.3       1 <0>         0.2482
     21 Br1         8.7526    7.9516   -0.6210 Br        1 <0>         0.0139
     22 H1         -3.7703    4.0629   -3.1505 H         1 <0>         0.2249
     23 H2         -2.1385    1.5194    0.0182 H         1 <0>         0.1314
     24 H3         -0.3147    0.9109    1.5501 H         1 <0>         0.1360
     25 H4          1.7863    2.1883    1.5406 H         1 <0>         0.1293
     26 H5          0.2591    4.7038   -1.5600 H         1 <0>         0.1477
     27 H6          3.1984    3.7867    0.0579 H         1 <0>         0.4010
     28 H7          3.4596    7.2533   -0.2851 H         1 <0>         0.4637
     29 H8          4.7199    4.6374   -0.1705 H         1 <0>         0.4180
     30 H9         10.4647    5.4835   -0.5483 H         1 <0>         0.1551
     31 H10         9.8014    3.0113   -0.3469 H         1 <0>         0.2037
@<TRIPOS>BOND
     1    1    2 3
     2    1   22 1
     3    2    3 1
     4    3    8 ar
     5    3    4 ar
     6    4    5 ar
     7    4   23 1
     8    5    6 ar
     9    5   24 1
    10    6    7 ar
    11    6   25 1
    12    7    8 ar
    13    7    9 1
    14    8   26 1
    15    9   10 1
    16    9   27 1
    17   10   11 2
    18   10   12 1
    19   12   13 1
    20   12   28 1
    21   13   14 am
    22   13   29 1
    23   14   15 2
    24   14   16 1
    25   16   20 1
    26   16   17 2
    27   17   18 1
    28   17   21 1
    29   18   19 2
    30   18   30 1
    31   19   20 1
    32   19   31 1
@<TRIPOS>MOLECULE
ZINC37289159
   38    39     0     0     0
SMALL
USER_CHARGES

@<TRIPOS>ATOM
      1 C1         -0.0184    1.5028    0.0103 C.3       1 <0>        -0.1172
      2 C2          0.0021   -0.0041    0.0020 C.ar      1 <0>        -0.1008
      3 C3          0.0057   -0.6889   -1.1980 C.ar      1 <0>        -0.0502
      4 C4          0.0240   -2.0712   -1.2062 C.ar      1 <0>        -0.1861
      5 C5          0.0391   -2.7720   -0.0142 C.ar      1 <0>        -0.0839
      6 C6          0.0359   -2.0920    1.1881 C.ar      1 <0>        -0.1949
      7 C7          0.0230   -0.7046    1.1991 C.ar      1 <0>         0.1592
      8 O1          0.0255   -0.0332    2.3806 O.3       1 <0>        -0.3036
      9 C8          0.0475   -0.8196    3.5736 C.3       1 <0>         0.0209
     10 C9          0.0269   -2.8156   -2.5165 C.3       1 <0>         0.0970
     11 H1         -0.3374   -2.1602   -3.3076 H         1 <0>         0.1493
     12 C10         1.4519   -3.2665   -2.8437 C.3       1 <0>        -0.0959
     13 C11         1.4764   -3.9024   -4.2098 C.ar      1 <0>        -0.1137
     14 C12         1.2573   -5.2607   -4.3437 C.ar      1 <0>        -0.1357
     15 C13         1.2792   -5.8443   -5.5965 C.ar      1 <0>        -0.0802
     16 C14         1.5204   -5.0689   -6.7163 C.ar      1 <0>        -0.0821
     17 C15         1.7396   -3.7097   -6.5818 C.ar      1 <0>        -0.0778
     18 C16         1.7123   -3.1262   -5.3291 C.ar      1 <0>        -0.0972
     19 Br1         1.5512   -5.8668   -8.4305 Br        1 <0>        -0.0238
     20 N1         -0.8473   -3.9917   -2.4135 N.4       1 <0>        -0.6382
     21 H2          1.0042    1.8801    0.0026 H         1 <0>         0.0786
     22 H3         -0.5455    1.8639   -0.8728 H         1 <0>         0.0729
     23 H4         -0.5286    1.8543    0.9071 H         1 <0>         0.0784
     24 H5         -0.0060   -0.1439   -2.1303 H         1 <0>         0.1411
     25 H6          0.0529   -3.8519   -0.0233 H         1 <0>         0.1223
     26 H7          0.0477   -2.6398    2.1188 H         1 <0>         0.1411
     27 H8         -0.8338   -1.4603    3.6027 H         1 <0>         0.0612
     28 H9          0.9459   -1.4367    3.5855 H         1 <0>         0.0620
     29 H10         0.0472   -0.1616    4.4426 H         1 <0>         0.1114
     30 H11         2.1176   -2.4035   -2.8327 H         1 <0>         0.1248
     31 H12         1.7836   -3.9909   -2.0998 H         1 <0>         0.1011
     32 H13         1.0693   -5.8661   -3.4693 H         1 <0>         0.1313
     33 H14         1.1084   -6.9055   -5.7010 H         1 <0>         0.1422
     34 H15         1.9280   -3.1039   -7.4558 H         1 <0>         0.1431
     35 H16         1.8794   -2.0643   -5.2244 H         1 <0>         0.1402
     36 H17        -0.5100   -4.5984   -1.6813 H         1 <0>         0.4295
     37 H18        -1.7871   -3.6943   -2.1978 H         1 <0>         0.4392
     38 H19        -0.8453   -4.4901   -3.2908 H         1 <0>         0.4342
@<TRIPOS>BOND
     1    1    2 1
     2    1   21 1
     3    1   22 1
     4    1   23 1
     5    2    7 ar
     6    2    3 ar
     7    3    4 ar
     8    3   24 1
     9    4    5 ar
    10    4   10 1
    11    5    6 ar
    12    5   25 1
    13    6    7 ar
    14    6   26 1
    15    7    8 1
    16    8    9 1
    17    9   27 1
    18    9   28 1
    19    9   29 1
    20   10   11 1
    21   10   12 1
    22   10   20 1
    23   12   13 1
    24   12   30 1
    25   12   31 1
    26   13   18 ar
    27   13   14 ar
    28   14   15 ar
    29   14   32 1
    30   15   16 ar
    31   15   33 1
    32   16   17 ar
    33   16   19 1
    34   17   18 ar
    35   17   34 1
    36   18   35 1
    37   20   36 1
    38   20   37 1
    39   20   38 1
@<TRIPOS>MOLECULE
ZINC42492496
   42    43     0     0     0
SMALL
USER_CHARGES

@<TRIPOS>ATOM
      1 C1         -0.0488    0.7577   -0.9838 C.3       1 <0>        -0.1532
      2 C2          0.0101   -0.7469   -0.7125 C.3       1 <0>        -0.0877
      3 H1          0.6716   -1.2212   -1.4375 H         1 <0>         0.0661
      4 C3         -1.3936   -1.3428   -0.8367 C.3       1 <0>        -0.1234
      5 C4         -1.3347   -2.8474   -0.5654 C.3       1 <0>        -0.1207
      6 C5         -0.8007   -3.0903    0.8477 C.3       1 <0>        -0.1193
      7 C6          0.6030   -2.4944    0.9718 C.3       1 <0>         0.0818
      8 H2          1.2645   -2.9687    0.2469 H         1 <0>         0.0133
      9 C7          0.5441   -0.9898    0.7005 C.3       1 <0>        -0.1184
     10 N1          1.1158   -2.7276    2.3285 N.3       1 <0>        -0.5287
     11 C8          2.3322   -1.9415    2.5739 C.3       1 <0>         0.0045
     12 C9          1.3573   -4.1578    2.5614 C.3       1 <0>         0.1555
     13 H3          0.5776   -4.7422    2.0729 H         1 <0>         0.1305
     14 C10         2.7211   -4.5450    1.9858 C.3       1 <0>        -0.0488
     15 N2          2.7434   -4.2595    0.5450 N.4       1 <0>        -0.6419
     16 C11         1.3400   -4.4355    4.0425 C.2       1 <0>        -0.1723
     17 C12         0.8519   -5.5140    4.7030 C.2       1 <0>        -0.1021
     18 C13         0.9455   -5.5545    6.0819 C.2       1 <0>        -0.1366
     19 C14         1.5227   -4.5141    6.7322 C.2       1 <0>        -0.1233
     20 S1          1.9638   -3.4332    5.3815 S.3       1 <0>         0.1211
     21 Br1         0.2780   -7.0379    7.0461 Br        1 <0>        -0.0182
     22 H4          0.9512    1.1823   -0.8954 H         1 <0>         0.0566
     23 H5         -0.4293    0.9308   -1.9905 H         1 <0>         0.0617
     24 H6         -0.7103    1.2320   -0.2589 H         1 <0>         0.0603
     25 H7         -2.0551   -0.8685   -0.1117 H         1 <0>         0.0705
     26 H8         -1.7741   -1.1698   -1.8433 H         1 <0>         0.0706
     27 H9         -2.3348   -3.2720   -0.6538 H         1 <0>         0.0762
     28 H10        -0.6732   -3.3217   -1.2903 H         1 <0>         0.0588
     29 H11        -1.4622   -2.6160    1.5726 H         1 <0>         0.0894
     30 H12        -0.7587   -4.1622    1.0410 H         1 <0>         0.0638
     31 H13         1.5441   -0.5652    0.7889 H         1 <0>         0.0704
     32 H14        -0.1174   -0.5155    1.4255 H         1 <0>         0.0884
     33 H15         2.0819   -0.8807    2.5913 H         1 <0>         0.1038
     34 H16         2.7632   -2.2288    3.5330 H         1 <0>         0.0837
     35 H17         3.0540   -2.1315    1.7796 H         1 <0>         0.0214
     36 H18         3.5019   -3.9690    2.4825 H         1 <0>         0.1432
     37 H19         2.8952   -5.6087    2.1482 H         1 <0>         0.1508
     38 H20         1.8963   -4.6061    0.1203 H         1 <0>         0.4364
     39 H21         2.8087   -3.2631    0.4006 H         1 <0>         0.4315
     40 H22         0.3965   -6.3292    4.1603 H         1 <0>         0.1450
     41 H23         1.6792   -4.3770    7.7919 H         1 <0>         0.2015
     42 H24         3.5405   -4.7133    0.1246 H         1 <0>         0.4375
@<TRIPOS>BOND
     1    1    2 1
     2    1   22 1
     3    1   23 1
     4    1   24 1
     5    2    3 1
     6    2    9 1
     7    2    4 1
     8    4    5 1
     9    4   25 1
    10    4   26 1
    11    5    6 1
    12    5   27 1
    13    5   28 1
    14    6    7 1
    15    6   29 1
    16    6   30 1
    17    7    8 1
    18    7    9 1
    19    7   10 1
    20    9   31 1
    21    9   32 1
    22   10   11 1
    23   10   12 1
    24   11   33 1
    25   11   34 1
    26   11   35 1
    27   12   13 1
    28   12   14 1
    29   12   16 1
    30   14   15 1
    31   14   36 1
    32   14   37 1
    33   15   38 1
    34   15   39 1
    35   15   42 1
    36   16   20 1
    37   16   17 2
    38   17   18 1
    39   17   40 1
    40   18   19 2
    41   18   21 1
    42   19   20 1
    43   19   41 1
@<TRIPOS>MOLECULE
ZINC43291134
   25    26     0     0     0
SMALL
USER_CHARGES

@<TRIPOS>ATOM
      1 C1          0.2502    1.2762   -0.2981 C.2       1 <0>         0.0325
      2 C2          1.4840    1.8322   -0.3581 C.2       1 <0>        -0.2135
      3 S1          2.5113    0.3739   -0.2814 S.3       1 <0>         0.2220
      4 C3          1.2826   -0.7719   -0.1825 C.2       1 <0>        -0.0442
      5 N1          0.1879   -0.0406   -0.2100 N.2       1 <0>        -0.5245
      6 S2          1.4261   -2.5244   -0.0701 S.3       1 <0>         0.0994
      7 C4         -0.2837   -3.0920    0.1425 C.3       1 <0>        -0.0215
      8 H1         -0.7484   -2.5458    0.9634 H         1 <0>         0.1426
      9 C5         -1.0686   -2.8404   -1.1464 C.3       1 <0>        -0.0009
     10 N2         -2.4829   -3.1747   -0.9317 N.4       1 <0>        -0.6329
     11 C6         -0.2884   -4.5665    0.4539 C.2       1 <0>        -0.2216
     12 C7         -0.7734   -5.2067    1.5459 C.2       1 <0>        -0.0789
     13 C8         -0.6675   -6.5835    1.6179 C.2       1 <0>        -0.1465
     14 C9         -0.0816   -7.2520    0.5941 C.2       1 <0>        -0.0982
     15 S3          0.3362   -5.9238   -0.5233 S.3       1 <0>         0.1290
     16 Br1        -1.3291   -7.5197    3.1218 Br        1 <0>        -0.0052
     17 H2         -0.6431    1.8829   -0.3168 H         1 <0>         0.1823
     18 H3          1.7681    2.8715   -0.4324 H         1 <0>         0.2065
     19 H4         -0.9818   -1.7903   -1.4256 H         1 <0>         0.1541
     20 H5         -0.6652   -3.4632   -1.9449 H         1 <0>         0.1448
     21 H6         -3.0150   -2.9293   -1.7531 H         1 <0>         0.4423
     22 H7         -2.5717   -4.1645   -0.7567 H         1 <0>         0.4338
     23 H8         -1.2353   -4.6498    2.3477 H         1 <0>         0.1522
     24 H9          0.0848   -8.3131    0.4816 H         1 <0>         0.2088
     25 H10        -2.8333   -2.6601   -0.1377 H         1 <0>         0.4374
@<TRIPOS>BOND
     1    1    5 1
     2    1    2 2
     3    1   17 1
     4    2    3 1
     5    2   18 1
     6    3    4 1
     7    4    5 2
     8    4    6 1
     9    6    7 1
    10    7    8 1
    11    7    9 1
    12    7   11 1
    13    9   10 1
    14    9   19 1
    15    9   20 1
    16   10   21 1
    17   10   22 1
    18   10   25 1
    19   11   15 1
    20   11   12 2
    21   12   13 1
    22   12   23 1
    23   13   14 2
    24   13   16 1
    25   14   15 1
    26   14   24 1
@<TRIPOS>MOLECULE
ZINC50588850
   31    32     0     0     0
SMALL
USER_CHARGES

@<TRIPOS>ATOM
      1 C1         -0.0184    1.5028    0.0103 C.3       1 <0>        -0.0889
      2 C2          0.0021   -0.0041    0.0020 C.2       1 <0>         0.1354
      3 C3          0.0080   -0.8182   -1.1359 C.2       1 <0>        -0.2308
      4 C4          0.0273   -2.1078   -0.7251 C.2       1 <0>         0.1333
      5 N1          0.0335   -2.1091    0.6251 N.pl3     1 <0>        -0.3828
      6 N2          0.0231   -0.7768    1.0577 N.2       1 <0>        -0.2841
      7 C5          0.0535   -3.2946    1.4857 C.3       1 <0>         0.2520
      8 H1          0.0629   -4.1922    0.8674 H         1 <0>         0.1410
      9 C6          1.3065   -3.2666    2.3633 C.3       1 <0>        -0.0191
     10 N3          1.3888   -4.5113    3.1391 N.4       1 <0>        -0.6311
     11 C7         -1.1730   -3.3005    2.3612 C.2       1 <0>        -0.2592
     12 C8         -2.1580   -4.2276    2.4438 C.2       1 <0>        -0.0973
     13 C9         -3.1999   -4.0222    3.3291 C.2       1 <0>        -0.1348
     14 C10        -3.2049   -2.8985    4.0886 C.2       1 <0>        -0.1514
     15 S1         -1.7012   -2.0917    3.5642 S.3       1 <0>         0.1837
     16 Br1        -4.4720   -2.3361    5.3748 Br        1 <0>         0.0693
     17 C11         0.0391   -3.3239   -1.6150 C.3       1 <0>        -0.1084
     18 Br2        -0.0088   -0.2222   -2.9305 Br        1 <0>         0.0054
     19 H2          1.0042    1.8801    0.0026 H         1 <0>         0.0909
     20 H3         -0.5455    1.8639   -0.8728 H         1 <0>         0.0900
     21 H4         -0.5286    1.8543    0.9071 H         1 <0>         0.0842
     22 H5          2.1901   -3.1728    1.7321 H         1 <0>         0.1533
     23 H6          1.2543   -2.4169    3.0440 H         1 <0>         0.1498
     24 H7          0.5708   -4.5982    3.7234 H         1 <0>         0.4373
     25 H8          1.4370   -5.2978    2.5089 H         1 <0>         0.4378
     26 H9         -2.1297   -5.1136    1.8269 H         1 <0>         0.1489
     27 H10        -3.9977   -4.7452    3.4142 H         1 <0>         0.1540
     28 H11         1.0695   -3.6036   -1.8345 H         1 <0>         0.0951
     29 H12        -0.4615   -4.1493   -1.1089 H         1 <0>         0.0763
     30 H13        -0.4822   -3.0983   -2.5453 H         1 <0>         0.1022
     31 H14         2.2151   -4.4929    3.7179 H         1 <0>         0.4479
@<TRIPOS>BOND
     1    1    2 1
     2    1   19 1
     3    1   20 1
     4    1   21 1
     5    2    6 2
     6    2    3 1
     7    3    4 2
     8    3   18 1
     9    4    5 1
    10    4   17 1
    11    5    6 1
    12    5    7 1
    13    7    8 1
    14    7    9 1
    15    7   11 1
    16    9   10 1
    17    9   22 1
    18    9   23 1
    19   10   24 1
    20   10   25 1
    21   10   31 1
    22   11   15 1
    23   11   12 2
    24   12   13 1
    25   12   26 1
    26   13   14 2
    27   13   27 1
    28   14   15 1
    29   14   16 1
    30   17   28 1
    31   17   29 1
    32   17   30 1
@<TRIPOS>MOLECULE
ZINC62332299
   33    35     0     0     0
SMALL
USER_CHARGES

@<TRIPOS>ATOM
      1 C1         -0.0167    1.3778    0.0096 C.ar      1 <0>        -0.0972
      2 C2          1.1711    2.0855    0.0021 C.ar      1 <0>        -0.0668
      3 C3          2.3775    1.4112   -0.0130 C.ar      1 <0>        -0.1379
      4 C4          2.3969    0.0289   -0.0206 C.ar      1 <0>        -0.0881
      5 C5          1.2092   -0.6791   -0.0130 C.ar      1 <0>        -0.0929
      6 C6          0.0021   -0.0041    0.0020 C.ar      1 <0>        -0.0581
      7 I1          1.2381   -2.7739   -0.0252 I         1 <0>        -0.0084
      8 C7          3.6719    2.1829   -0.0217 C.3       1 <0>         0.1433
      9 H1          3.4861    3.2001   -0.3663 H         1 <0>         0.1604
     10 C8          4.2433    2.2212    1.3722 C.ar      1 <0>        -0.1390
     11 C9          4.9413    1.1332    1.8629 C.ar      1 <0>        -0.1129
     12 C10         5.4666    1.1672    3.1417 C.ar      1 <0>        -0.0784
     13 C11         5.2933    2.2881    3.9273 C.ar      1 <0>        -0.0970
     14 C12         4.5936    3.3786    3.4355 C.ar      1 <0>        -0.1143
     15 C13         4.0741    3.3468    2.1577 C.ar      1 <0>        -0.0596
     16 C14         4.5782    4.4287    4.5216 C.3       1 <0>         0.0835
     17 O1          4.9094    3.7408    5.7419 O.3       1 <0>        -0.3496
     18 C15         5.7309    2.6322    5.3318 C.3       1 <0>         0.0795
     19 N1          4.6271    1.5268   -0.9246 N.4       1 <0>        -0.6363
     20 H2         -0.9591    1.9049    0.0259 H         1 <0>         0.1478
     21 H3          1.1562    3.1653    0.0076 H         1 <0>         0.1421
     22 H4          3.3396   -0.4980   -0.0327 H         1 <0>         0.1237
     23 H5         -0.9257   -0.5568    0.0082 H         1 <0>         0.1432
     24 H6          5.0761    0.2562    1.2472 H         1 <0>         0.1239
     25 H7          6.0116    0.3172    3.5251 H         1 <0>         0.1413
     26 H8          3.5324    4.1982    1.7729 H         1 <0>         0.1393
     27 H9          5.3209    5.1981    4.3108 H         1 <0>         0.0885
     28 H10         3.5865    4.8744    4.5991 H         1 <0>         0.1068
     29 H11         5.5713    1.7813    5.9941 H         1 <0>         0.1089
     30 H12         6.7819    2.9213    5.3375 H         1 <0>         0.0905
     31 H13         4.2445    1.5011   -1.8579 H         1 <0>         0.4422
     32 H14         5.4937    2.0435   -0.9304 H         1 <0>         0.4425
     33 H15         4.7991    0.5851   -0.6056 H         1 <0>         0.4292
@<TRIPOS>BOND
     1    1    6 ar
     2    1    2 ar
     3    1   20 1
     4    2    3 ar
     5    2   21 1
     6    3    4 ar
     7    3    8 1
     8    4    5 ar
     9    4   22 1
    10    5    6 ar
    11    5    7 1
    12    6   23 1
    13    8    9 1
    14    8   10 1
    15    8   19 1
    16   10   15 ar
    17   10   11 ar
    18   11   12 ar
    19   11   24 1
    20   12   13 ar
    21   12   25 1
    22   13   18 1
    23   13   14 ar
    24   14   15 ar
    25   14   16 1
    26   15   26 1
    27   16   17 1
    28   16   27 1
    29   16   28 1
    30   17   18 1
    31   18   29 1
    32   18   30 1
    33   19   31 1
    34   19   32 1
    35   19   33 1
@<TRIPOS>MOLECULE
ZINC07157249
   40    42     0     0     0
SMALL
USER_CHARGES
3-(7-bromobenzo[1,3]dioxol-5-yl)-2-cyano-N-(1-phenylethyl)prop-2-enamide
@<TRIPOS>ATOM
      1 C1         -2.9432    0.5468   -0.7128 C.3       1 <0>        -0.1598
      2 C2         -2.4145    1.1684    0.5815 C.3       1 <0>         0.1846
      3 H1         -2.2194    0.3809    1.3094 H         1 <0>         0.1037
      4 C3         -3.4407    2.1223    1.1363 C.ar      1 <0>        -0.0966
      5 C4         -3.5512    3.3981    0.6157 C.ar      1 <0>        -0.1157
      6 C5         -4.4955    4.2717    1.1217 C.ar      1 <0>        -0.1145
      7 C6         -5.3231    3.8726    2.1545 C.ar      1 <0>        -0.1167
      8 C7         -5.2091    2.5986    2.6786 C.ar      1 <0>        -0.1146
      9 C8         -4.2677    1.7235    2.1697 C.ar      1 <0>        -0.1056
     10 N1         -1.1730    1.8945    0.3029 N.am      1 <0>        -0.7186
     11 C9          0.0036    1.2373    0.2901 C.2       1 <0>         0.5768
     12 O1          0.0347    0.0413    0.5098 O.2       1 <0>        -0.5221
     13 C10         1.2498    1.9654    0.0043 C.2       1 <0>        -0.1192
     14 C11         2.4520    1.2926   -0.0144 C.2       1 <0>         0.0752
     15 C12         3.7067    2.0383   -0.1329 C.ar      1 <0>        -0.0894
     16 C13         3.8363    3.2983    0.4693 C.ar      1 <0>        -0.0624
     17 C14         5.0206    3.9963    0.3549 C.ar      1 <0>         0.0426
     18 C15         6.0887    3.4487   -0.3598 C.ar      1 <0>         0.0874
     19 C16         5.9613    2.2000   -0.9576 C.ar      1 <0>        -0.0846
     20 C17         4.7849    1.4930   -0.8439 C.ar      1 <0>        -0.0406
     21 Br1         7.4118    1.4656   -1.9232 Br        1 <0>        -0.0141
     22 O2          7.1310    4.3270   -0.3234 O.3       1 <0>        -0.2896
     23 C18         6.8374    5.2294    0.7591 C.3       1 <0>         0.2102
     24 O3          5.3998    5.2163    0.8367 O.3       1 <0>        -0.2980
     25 C19         1.2132    3.3734   -0.2543 C.1       1 <0>         0.2348
     26 N2          1.1841    4.4903   -0.4595 N.1       1 <0>        -0.3916
     27 H2         -2.2009   -0.1432   -1.1141 H         1 <0>         0.0690
     28 H3         -3.8669    0.0065   -0.5055 H         1 <0>         0.0717
     29 H4         -3.1383    1.3342   -1.4408 H         1 <0>         0.0597
     30 H5         -2.9021    3.7112   -0.1887 H         1 <0>         0.1176
     31 H6         -4.5848    5.2670    0.7119 H         1 <0>         0.1243
     32 H7         -6.0591    4.5560    2.5516 H         1 <0>         0.1242
     33 H8         -5.8557    2.2868    3.4855 H         1 <0>         0.1260
     34 H9         -4.1786    0.7282    2.5792 H         1 <0>         0.1268
     35 H10        -1.1978    2.8482    0.1277 H         1 <0>         0.4003
     36 H11         2.4691    0.2151    0.0583 H         1 <0>         0.1761
     37 H12         3.0104    3.7211    1.0220 H         1 <0>         0.1442
     38 H13         4.6915    0.5213   -1.3059 H         1 <0>         0.1619
     39 H14         7.2743    4.8664    1.6894 H         1 <0>         0.0947
     40 H15         7.1993    6.2319    0.5306 H         1 <0>         0.1417
@<TRIPOS>BOND
     1    1    2 1
     2    1   27 1
     3    1   28 1
     4    1   29 1
     5    2    3 1
     6    2    4 1
     7    2   10 1
     8    4    9 ar
     9    4    5 ar
    10    5    6 ar
    11    5   30 1
    12    6    7 ar
    13    6   31 1
    14    7    8 ar
    15    7   32 1
    16    8    9 ar
    17    8   33 1
    18    9   34 1
    19   10   11 am
    20   10   35 1
    21   11   12 2
    22   11   13 1
    23   13   14 2
    24   13   25 1
    25   14   15 1
    26   14   36 1
    27   15   20 ar
    28   15   16 ar
    29   16   17 ar
    30   16   37 1
    31   17   24 1
    32   17   18 ar
    33   18   19 ar
    34   18   22 1
    35   19   20 ar
    36   19   21 1
    37   20   38 1
    38   22   23 1
    39   23   24 1
    40   23   39 1
    41   23   40 1
    42   25   26 3
@<TRIPOS>MOLECULE
ZINC20892185
   45    48     0     0     0
SMALL
USER_CHARGES
(4R)-4-(4-chlorophenyl)-1-(4-methoxyphenyl)-3-methyl-4,8-dihydropyrazolo[5,4-e][1,4]thiazepin-7-one
@<TRIPOS>ATOM
      1 C1         -1.1662    2.8954    2.4104 C.3       1 <0>        -0.1408
      2 C2         -2.6672    3.0089    2.3377 C.2       1 <0>         0.1248
      3 C3         -3.4142    3.2833    1.1726 C.2       1 <0>        -0.2551
      4 C4         -4.7209    3.3055    1.5156 C.2       1 <0>         0.3566
      5 N1         -4.7872    3.0443    2.8662 N.pl3     1 <0>        -0.3440
      6 N2         -3.4872    2.8691    3.3401 N.2       1 <0>        -0.2657
      7 C5         -5.9594    2.9697    3.6332 C.ar      1 <0>         0.1064
      8 C6         -6.0109    3.5719    4.8831 C.ar      1 <0>        -0.0595
      9 C7         -7.1665    3.5023    5.6355 C.ar      1 <0>        -0.1872
     10 C8         -8.2725    2.8217    5.1473 C.ar      1 <0>         0.1359
     11 C9         -8.2198    2.2153    3.9006 C.ar      1 <0>        -0.1242
     12 C10        -7.0664    2.2888    3.1451 C.ar      1 <0>        -0.1003
     13 O1         -9.4082    2.7486    5.8910 O.3       1 <0>        -0.3107
     14 C11        -9.3922    3.3958    7.1649 C.3       1 <0>         0.0199
     15 N3         -5.8591    3.5301    0.7791 N.am      1 <0>        -0.6478
     16 C12        -6.1114    3.7469   -0.4769 C.2       1 <0>         0.5368
     17 O2         -7.2900    3.7975   -0.7590 O.2       1 <0>        -0.5288
     18 C13        -5.1906    3.9414   -1.6166 C.3       1 <0>        -0.1330
     19 S1         -3.7378    2.8852   -1.5334 S.3       1 <0>        -0.1532
     20 C14        -2.7602    3.4944   -0.1570 C.3       1 <0>         0.0434
     21 H1         -2.5478    4.5732   -0.1226 H         1 <0>         0.1097
     22 C15        -1.4292    2.7877   -0.1589 C.ar      1 <0>        -0.0506
     23 C16        -1.3799    1.4074   -0.2174 C.ar      1 <0>        -0.0871
     24 C17        -0.1595    0.7584   -0.2139 C.ar      1 <0>        -0.1020
     25 C18         1.0130    1.4909   -0.1620 C.ar      1 <0>        -0.0281
     26 C19         0.9631    2.8725   -0.1083 C.ar      1 <0>        -0.1110
     27 C20        -0.2579    3.5201   -0.1065 C.ar      1 <0>        -0.0908
     28 Cl1         2.5463    0.6769   -0.1647 Cl        1 <0>        -0.0631
     29 H2         -0.7372    3.0605    1.4111 H         1 <0>         0.1267
     30 H3         -0.8912    1.8915    2.7662 H         1 <0>         0.0783
     31 H4         -0.7747    3.6513    3.1070 H         1 <0>         0.0767
     32 H5         -5.1486    4.0983    5.2650 H         1 <0>         0.1381
     33 H6         -7.2081    3.9742    6.6061 H         1 <0>         0.1414
     34 H7         -9.0811    1.6859    3.5208 H         1 <0>         0.1465
     35 H8         -7.0256    1.8170    2.1745 H         1 <0>         0.1376
     36 H9        -10.3663    3.2600    7.6574 H         1 <0>         0.1069
     37 H10        -9.1970    4.4697    7.0281 H         1 <0>         0.0598
     38 H11        -8.6009    2.9559    7.7897 H         1 <0>         0.0602
     39 H12        -6.8404    3.5508    1.2757 H         1 <0>         0.4333
     40 H13        -5.7162    3.7135   -2.5556 H         1 <0>         0.1584
     41 H14        -4.8444    4.9853   -1.6342 H         1 <0>         0.1277
     42 H15        -2.2951    0.8358   -0.2625 H         1 <0>         0.1378
     43 H16        -0.1212   -0.3201   -0.2562 H         1 <0>         0.1381
     44 H17         1.8781    3.4449   -0.0680 H         1 <0>         0.1412
     45 H18        -0.2970    4.5986   -0.0646 H         1 <0>         0.1411
@<TRIPOS>BOND
     1    1    2 1
     2    1   29 1
     3    1   30 1
     4    1   31 1
     5    2    6 2
     6    2    3 1
     7    3   20 1
     8    3    4 2
     9    4    5 1
    10    4   15 1
    11    5    6 1
    12    5    7 1
    13    7   12 ar
    14    7    8 ar
    15    8    9 ar
    16    8   32 1
    17    9   10 ar
    18    9   33 1
    19   10   11 ar
    20   10   13 1
    21   11   12 ar
    22   11   34 1
    23   12   35 1
    24   13   14 1
    25   14   36 1
    26   14   37 1
    27   14   38 1
    28   15   16 am
    29   15   39 1
    30   16   17 2
    31   16   18 1
    32   18   19 1
    33   18   40 1
    34   18   41 1
    35   19   20 1
    36   20   21 1
    37   20   22 1
    38   22   27 ar
    39   22   23 ar
    40   23   24 ar
    41   23   42 1
    42   24   25 ar
    43   24   43 1
    44   25   26 ar
    45   25   28 1
    46   26   27 ar
    47   26   44 1
    48   27   45 1
@<TRIPOS>MOLECULE
ZINC36151452
   53    56     0     0     0
SMALL
USER_CHARGES

@<TRIPOS>ATOM
      1 C1          2.5024   -0.9910    1.4404 C.3       1 <0>        -0.1202
      2 C2          1.2066   -1.2716    0.7240 C.ar      1 <0>        -0.0761
      3 C3          1.2166   -1.9379   -0.4873 C.ar      1 <0>        -0.1169
      4 C4          0.0281   -2.1953   -1.1443 C.ar      1 <0>        -0.1142
      5 C5         -1.1708   -1.7868   -0.5899 C.ar      1 <0>        -0.1196
      6 C6         -1.1808   -1.1214    0.6215 C.ar      1 <0>        -0.1010
      7 C7          0.0077   -0.8678    1.2808 C.ar      1 <0>        -0.1090
      8 C8         -0.0037   -0.1470    2.6042 C.3       1 <0>         0.1577
      9 N1         -1.3885    0.0909    3.0188 N.am      1 <0>        -0.5377
     10 C9         -2.1293    1.2177    2.6535 C.ar      1 <0>         0.1800
     11 C10        -1.7871    2.3166    1.8692 C.ar      1 <0>        -0.1400
     12 C11        -2.7035    3.3228    1.6456 C.ar      1 <0>        -0.0667
     13 C12        -3.9693    3.2492    2.1980 C.ar      1 <0>        -0.1461
     14 C13        -4.3183    2.1610    2.9775 C.ar      1 <0>        -0.0336
     15 C14        -3.4075    1.1532    3.2032 C.ar      1 <0>        -0.1445
     16 C15        -3.4516   -0.1320    3.9729 C.3       1 <0>         0.2410
     17 C16        -2.0984   -0.7548    3.7927 C.2       1 <0>         0.5543
     18 O1         -1.7175   -1.8099    4.2539 O.2       1 <0>        -0.4695
     19 N2         -3.8131    0.0547    5.3764 N.am      1 <0>        -0.6121
     20 C17        -5.0918   -0.5300    5.7861 C.3       1 <0>         0.0939
     21 C18        -5.4084   -1.8095    4.9547 C.3       1 <0>        -0.0789
     22 S1         -4.7601   -1.2381    3.3176 S.3       1 <0>        -0.2092
     23 C19        -3.0204    0.7216    6.2385 C.2       1 <0>         0.7193
     24 O2         -1.9660    1.1911    5.8563 O.2       1 <0>        -0.5628
     25 N3         -3.3966    0.8682    7.5244 N.am      1 <0>        -0.7345
     26 C20        -2.5349    1.5931    8.4616 C.3       1 <0>         0.1537
     27 C21        -3.3836    2.1568    9.6030 C.3       1 <0>        -0.1606
     28 C22        -1.4838    0.6383    9.0310 C.3       1 <0>        -0.1651
     29 H1          2.6856   -1.7714    2.1790 H         1 <0>         0.0739
     30 H2          3.3198   -0.9739    0.7195 H         1 <0>         0.0701
     31 H3          2.4391   -0.0248    1.9408 H         1 <0>         0.0671
     32 H4          2.1531   -2.2571   -0.9204 H         1 <0>         0.1245
     33 H5          0.0360   -2.7152   -2.0909 H         1 <0>         0.1234
     34 H6         -2.0994   -1.9872   -1.1036 H         1 <0>         0.1222
     35 H7         -2.1173   -0.8020    1.0544 H         1 <0>         0.1147
     36 H8          0.5005   -0.7564    3.3542 H         1 <0>         0.1031
     37 H9          0.5143    0.8067    2.5029 H         1 <0>         0.1009
     38 H10        -0.8005    2.3812    1.4348 H         1 <0>         0.1277
     39 H11        -2.4313    4.1723    1.0368 H         1 <0>         0.1341
     40 H12        -4.6836    4.0397    2.0214 H         1 <0>         0.1328
     41 H13        -5.3064    2.1017    3.4095 H         1 <0>         0.1273
     42 H14        -5.0442   -0.7918    6.8431 H         1 <0>         0.0955
     43 H15        -5.8855    0.2016    5.6348 H         1 <0>         0.0889
     44 H16        -4.8577   -2.6744    5.3243 H         1 <0>         0.1083
     45 H17        -6.4796   -2.0070    4.9150 H         1 <0>         0.1350
     46 H18        -4.2377    0.4936    7.8294 H         1 <0>         0.3951
     47 H19        -2.0382    2.4112    7.9400 H         1 <0>         0.0900
     48 H20        -3.8804    1.3387   10.1247 H         1 <0>         0.0611
     49 H21        -2.7426    2.6962   10.3003 H         1 <0>         0.0763
     50 H22        -4.1325    2.8370    9.1974 H         1 <0>         0.0625
     51 H23        -1.9805   -0.1797    9.5526 H         1 <0>         0.0560
     52 H24        -0.8792    0.2368    8.2178 H         1 <0>         0.0602
     53 H25        -0.8427    1.1777    9.7283 H         1 <0>         0.0677
@<TRIPOS>BOND
     1    1    2 1
     2    1   29 1
     3    1   30 1
     4    1   31 1
     5    2    7 ar
     6    2    3 ar
     7    3    4 ar
     8    3   32 1
     9    4    5 ar
    10    4   33 1
    11    5    6 ar
    12    5   34 1
    13    6    7 ar
    14    6   35 1
    15    7    8 1
    16    8    9 1
    17    8   36 1
    18    8   37 1
    19    9   17 am
    20    9   10 1
    21   10   15 ar
    22   10   11 ar
    23   11   12 ar
    24   11   38 1
    25   12   13 ar
    26   12   39 1
    27   13   14 ar
    28   13   40 1
    29   14   15 ar
    30   14   41 1
    31   15   16 1
    32   16   22 1
    33   16   17 1
    34   16   19 1
    35   17   18 2
    36   19   20 1
    37   19   23 am
    38   20   21 1
    39   20   42 1
    40   20   43 1
    41   21   22 1
    42   21   44 1
    43   21   45 1
    44   23   24 2
    45   23   25 am
    46   25   26 1
    47   25   46 1
    48   26   27 1
    49   26   28 1
    50   26   47 1
    51   27   48 1
    52   27   49 1
    53   27   50 1
    54   28   51 1
    55   28   52 1
    56   28   53 1
@<TRIPOS>MOLECULE
ZINC54730330
   54    57     0     0     0
SMALL
USER_CHARGES

@<TRIPOS>ATOM
      1 C1         -0.0203    1.5018    0.0090 C.3       1 <0>        -0.0728
      2 C2          0.0010   -0.0050    0.0003 C.2       1 <0>        -0.1328
      3 C3         -1.0398   -0.8734   -0.0016 C.2       1 <0>        -0.1638
      4 C4         -0.7801   -2.2310   -0.0109 C.2       1 <0>        -0.1350
      5 C5          0.5077   -2.6539   -0.0179 C.2       1 <0>        -0.1613
      6 S1          1.4035   -1.1096   -0.0182 S.3       1 <0>         0.0326
      7 C6          1.0442   -4.0621   -0.0284 C.3       1 <0>         0.2481
      8 H1          0.2723   -4.7476    0.3214 H         1 <0>         0.1106
      9 C7          1.4550   -4.4407   -1.4528 C.3       1 <0>        -0.1596
     10 N1          2.2098   -4.1473    0.8549 N.am      1 <0>        -0.7432
     11 C8          2.5528   -5.3284    1.4061 C.2       1 <0>         0.7123
     12 O1          1.8436   -6.3030    1.2456 O.2       1 <0>        -0.5862
     13 N2          3.6818   -5.4294    2.1351 N.am      1 <0>        -0.6284
     14 C9          4.4933   -4.2408    2.4385 C.3       1 <0>         0.1172
     15 C10         5.9474   -4.5328    2.0530 C.3       1 <0>         0.0414
     16 N3          6.3866   -5.7696    2.7127 N.3       1 <0>        -0.5304
     17 C11         5.6034   -6.9249    2.2546 C.3       1 <0>         0.0455
     18 C12         4.1319   -6.7301    2.6536 C.3       1 <0>         0.1327
     19 C13         7.8239   -5.9936    2.5081 C.3       1 <0>         0.1034
     20 C14         8.2871   -7.1231    3.3917 C.ar      1 <0>        -0.0571
     21 C15         8.9202   -6.8559    4.5666 C.ar      1 <0>        -0.0822
     22 C16         9.3565   -7.8848    5.3983 C.ar      1 <0>        -0.1132
     23 C17         9.1611   -9.1888    5.0580 C.ar      1 <0>        -0.0965
     24 C18         8.5112   -9.5015    3.8536 C.ar      1 <0>        -0.1022
     25 C19         8.0617   -8.4565    3.0085 C.ar      1 <0>         0.1293
     26 N4          7.4385   -8.7491    1.8625 N.ar      1 <0>        -0.4693
     27 C20         7.2262   -9.9909    1.5002 C.ar      1 <0>         0.1288
     28 C21         7.6372  -11.0648    2.2871 C.ar      1 <0>        -0.1743
     29 C22         8.2900  -10.8364    3.4649 C.ar      1 <0>        -0.0560
     30 H2          1.0021    1.8796    0.0026 H         1 <0>         0.0732
     31 H3         -0.5465    1.8628   -0.8746 H         1 <0>         0.0825
     32 H4         -0.5318    1.8528    0.9052 H         1 <0>         0.0824
     33 H5         -2.0568   -0.5100    0.0045 H         1 <0>         0.1355
     34 H6         -1.5911   -2.9442   -0.0122 H         1 <0>         0.1357
     35 H7          1.8430   -5.4593   -1.4604 H         1 <0>         0.0701
     36 H8          0.5877   -4.3773   -2.1100 H         1 <0>         0.0717
     37 H9          2.2269   -3.7553   -1.8027 H         1 <0>         0.0592
     38 H10         2.7347   -3.3536    1.0432 H         1 <0>         0.3946
     39 H11         4.1259   -3.3903    1.8642 H         1 <0>         0.0772
     40 H12         4.4344   -4.0195    3.5042 H         1 <0>         0.0796
     41 H13         6.0202   -4.6515    0.9719 H         1 <0>         0.0406
     42 H14         6.5814   -3.7055    2.3720 H         1 <0>         0.0881
     43 H15         5.6810   -7.0103    1.1708 H         1 <0>         0.0461
     44 H16         5.9879   -7.8326    2.7199 H         1 <0>         0.0991
     45 H17         4.0389   -6.7435    3.7395 H         1 <0>         0.0689
     46 H18         3.5255   -7.5262    2.2215 H         1 <0>         0.0943
     47 H19         8.0068   -6.2501    1.4646 H         1 <0>         0.0541
     48 H20         8.3726   -5.0862    2.7607 H         1 <0>         0.0830
     49 H21         9.0874   -5.8296    4.8585 H         1 <0>         0.1310
     50 H22         9.8566   -7.6451    6.3250 H         1 <0>         0.1293
     51 H23         9.5045   -9.9777    5.7107 H         1 <0>         0.1303
     52 H24         6.7189  -10.1868    0.5671 H         1 <0>         0.1591
     53 H25         7.4476  -12.0770    1.9618 H         1 <0>         0.1379
     54 H26         8.6165  -11.6568    4.0867 H         1 <0>         0.1387
@<TRIPOS>BOND
     1    1    2 1
     2    1   30 1
     3    1   31 1
     4    1   32 1
     5    2    6 1
     6    2    3 2
     7    3    4 1
     8    3   33 1
     9    4    5 2
    10    4   34 1
    11    5    6 1
    12    5    7 1
    13    7    8 1
    14    7    9 1
    15    7   10 1
    16    9   35 1
    17    9   36 1
    18    9   37 1
    19   10   11 am
    20   10   38 1
    21   11   12 2
    22   11   13 am
    23   13   18 1
    24   13   14 1
    25   14   15 1
    26   14   39 1
    27   14   40 1
    28   15   16 1
    29   15   41 1
    30   15   42 1
    31   16   17 1
    32   16   19 1
    33   17   18 1
    34   17   43 1
    35   17   44 1
    36   18   45 1
    37   18   46 1
    38   19   20 1
    39   19   47 1
    40   19   48 1
    41   20   25 ar
    42   20   21 ar
    43   21   22 ar
    44   21   49 1
    45   22   23 ar
    46   22   50 1
    47   23   24 ar
    48   23   51 1
    49   24   29 ar
    50   24   25 ar
    51   25   26 ar
    52   26   27 ar
    53   27   28 ar
    54   27   52 1
    55   28   29 ar
    56   28   53 1
    57   29   54 1
@<TRIPOS>MOLECULE
ZINC64503240
   36    39     0     0     0
SMALL
USER_CHARGES

@<TRIPOS>ATOM
      1 C1         -0.0168    1.3894    0.0097 C.ar      1 <0>        -0.0739
      2 C2          1.1700    2.0933    0.0021 C.ar      1 <0>        -0.1098
      3 C3          2.3782    1.4174   -0.0130 C.ar      1 <0>        -0.0258
      4 C4          2.4023    0.0332   -0.0212 C.ar      1 <0>        -0.1097
      5 C5          1.2209   -0.6798   -0.0137 C.ar      1 <0>        -0.0888
      6 C6          0.0021   -0.0041    0.0020 C.ar      1 <0>        -0.0261
      7 C7         -1.2711   -0.7657    0.0106 C.2       1 <0>         0.0139
      8 C8         -1.3627   -2.1096    0.0096 C.2       1 <0>        -0.1360
      9 C9         -2.8582   -2.3723    0.0204 C.3       1 <0>        -0.0738
     10 H1         -3.1466   -2.9180    0.9188 H         1 <0>         0.1627
     11 N1         -3.4366   -1.0184    0.0264 N.2       1 <0>        -0.1367
     12 N2         -2.5093   -0.2060    0.0264 N.2       1 <0>        -0.1468
     13 C10        -3.2811   -3.1389   -1.2343 C.3       1 <0>         0.3194
     14 H2         -2.7547   -4.0916   -1.2925 H         1 <0>         0.1181
     15 N3         -4.7365   -3.3552   -1.2377 N.pl3     1 <0>        -0.7458
     16 C11        -5.2330   -2.7158   -2.3591 C.2       1 <0>         0.3692
     17 N4         -4.2862   -2.1463   -3.0303 N.2       1 <0>        -0.3331
     18 O1         -3.0286   -2.3542   -2.4099 O.3       1 <0>        -0.1878
     19 C12        -6.6628   -2.6876   -2.7413 C.ar      1 <0>        -0.0326
     20 C13        -7.6126   -3.3298   -1.9468 C.ar      1 <0>        -0.0800
     21 C14        -8.9437   -3.3003   -2.3079 C.ar      1 <0>        -0.0909
     22 C15        -9.3374   -2.6354   -3.4566 C.ar      1 <0>        -0.0700
     23 C16        -8.3991   -1.9964   -4.2490 C.ar      1 <0>        -0.0899
     24 C17        -7.0661   -2.0140   -3.8943 C.ar      1 <0>        -0.0620
     25 Br1       -11.1638   -2.6005   -3.9456 Br        1 <0>        -0.0362
     26 Cl1         3.8680    2.3086   -0.0225 Cl        1 <0>        -0.0638
     27 H3         -0.9588    1.9175    0.0260 H         1 <0>         0.1439
     28 H4          1.1564    3.1732    0.0077 H         1 <0>         0.1399
     29 H5          3.3473   -0.4895   -0.0337 H         1 <0>         0.1394
     30 H6          1.2406   -1.7596   -0.0204 H         1 <0>         0.1341
     31 H7         -0.5598   -2.8319    0.0028 H         1 <0>         0.1781
     32 H8         -5.2490   -3.8511   -0.5803 H         1 <0>         0.4302
     33 H9         -7.3065   -3.8493   -1.0509 H         1 <0>         0.1350
     34 H10        -9.6800   -3.7971   -1.6936 H         1 <0>         0.1432
     35 H11        -8.7118   -1.4795   -5.1442 H         1 <0>         0.1447
     36 H12        -6.3355   -1.5114   -4.5107 H         1 <0>         0.1478
@<TRIPOS>BOND
     1    1    6 ar
     2    1    2 ar
     3    1   27 1
     4    2    3 ar
     5    2   28 1
     6    3    4 ar
     7    3   26 1
     8    4    5 ar
     9    4   29 1
    10    5    6 ar
    11    5   30 1
    12    6    7 1
    13    7   12 1
    14    7    8 2
    15    8    9 1
    16    8   31 1
    17    9   10 1
    18    9   11 1
    19    9   13 1
    20   11   12 2
    21   13   14 1
    22   13   18 1
    23   13   15 1
    24   15   16 1
    25   15   32 1
    26   16   17 2
    27   16   19 1
    28   17   18 1
    29   19   24 ar
    30   19   20 ar
    31   20   21 ar
    32   20   33 1
    33   21   22 ar
    34   21   34 1
    35   22   23 ar
    36   22   25 1
    37   23   24 ar
    38   23   35 1
    39   24   36 1
@<TRIPOS>MOLECULE
ZINC13750556
   68    71     0     0     0
SMALL
USER_CHARGES
(2R,3R,4S,6R)-2,6-bis(4-methoxyphenyl)-4-(2-phenylethynyl)-3-propyl-piperidin-4-ol
@<TRIPOS>ATOM
      1 C1          2.0350    5.7506   -4.4954 C.3       1 <0>        -0.1550
      2 C2          0.9438    6.3459   -3.6033 C.3       1 <0>        -0.1425
      3 C3          0.9495    5.6360   -2.2479 C.3       1 <0>        -0.1247
      4 C4         -0.0391    6.3267   -1.3063 C.3       1 <0>        -0.0830
      5 H1          0.0200    7.4064   -1.4440 H         1 <0>         0.1101
      6 C5          0.3062    5.9768    0.1430 C.3       1 <0>         0.0949
      7 H2          1.3121    6.3287    0.3718 H         1 <0>         0.1515
      8 C6         -2.0211    6.1435    0.7976 C.3       1 <0>         0.0702
      9 H3         -2.0559    5.0619    0.9278 H         1 <0>         0.1718
     10 C7         -2.4355    6.4984   -0.6322 C.3       1 <0>        -0.1537
     11 C8         -1.4599    5.8486   -1.6173 C.3       1 <0>         0.2651
     12 C9         -1.8189    6.2343   -2.9918 C.1       1 <0>        -0.2214
     13 C10        -2.1052    6.5419   -4.0880 C.1       1 <0>        -0.0580
     14 C11        -2.4545    6.9170   -5.4252 C.ar      1 <0>        -0.0150
     15 C12        -3.5490    7.7513   -5.6555 C.ar      1 <0>        -0.0885
     16 C13        -3.8776    8.1125   -6.9460 C.ar      1 <0>        -0.1176
     17 C14        -3.1304    7.6417   -8.0108 C.ar      1 <0>        -0.0972
     18 C15        -2.0473    6.8101   -7.7895 C.ar      1 <0>        -0.1182
     19 C16        -1.7052    6.4452   -6.5036 C.ar      1 <0>        -0.0890
     20 O1         -1.5259    4.4271   -1.4875 O.3       1 <0>        -0.5242
     21 C17        -2.9672    6.7972    1.7715 C.ar      1 <0>        -0.1862
     22 C18        -2.8076    8.1310    2.0992 C.ar      1 <0>        -0.0768
     23 C19        -3.6770    8.7340    2.9874 C.ar      1 <0>        -0.1983
     24 C20        -4.7043    7.9974    3.5590 C.ar      1 <0>         0.1610
     25 C21        -4.8588    6.6579    3.2329 C.ar      1 <0>        -0.1414
     26 C22        -3.9899    6.0608    2.3402 C.ar      1 <0>        -0.0453
     27 O2         -5.5575    8.5870    4.4373 O.3       1 <0>        -0.3070
     28 C23        -5.3383    9.9692    4.7262 C.3       1 <0>         0.0213
     29 C24         0.2429    4.4825    0.3275 C.ar      1 <0>        -0.1382
     30 C25         0.9674    3.6526   -0.5080 C.ar      1 <0>        -0.0528
     31 C26         0.9114    2.2825   -0.3406 C.ar      1 <0>        -0.1352
     32 C27         0.1274    1.7394    0.6668 C.ar      1 <0>         0.1511
     33 C28        -0.6028    2.5740    1.5005 C.ar      1 <0>        -0.1951
     34 C29        -0.5393    3.9437    1.3323 C.ar      1 <0>        -0.1030
     35 O3          0.0703    0.3918    0.8332 O.3       1 <0>        -0.3109
     36 C30        -0.7574   -0.0968    1.8907 C.3       1 <0>         0.0237
     37 H4          1.8450    4.6873   -4.6414 H         1 <0>         0.0564
     38 H5          2.0309    6.2563   -5.4610 H         1 <0>         0.0585
     39 H6          3.0064    5.8841   -4.0194 H         1 <0>         0.0552
     40 H7         -0.0277    6.2124   -4.0793 H         1 <0>         0.0826
     41 H8          1.1338    7.4092   -3.4573 H         1 <0>         0.0591
     42 H9          1.9507    5.6796   -1.8192 H         1 <0>         0.0784
     43 H10         0.6566    4.5947   -2.3820 H         1 <0>         0.1055
     44 H11        -3.4435    6.1290   -0.8212 H         1 <0>         0.1182
     45 H12        -2.4142    7.5807   -0.7593 H         1 <0>         0.0997
     46 H13        -4.1354    8.1164   -4.8253 H         1 <0>         0.1266
     47 H14        -4.7221    8.7615   -7.1254 H         1 <0>         0.1326
     48 H15        -3.3941    7.9244   -9.0193 H         1 <0>         0.1314
     49 H16        -1.4679    6.4459   -8.6251 H         1 <0>         0.1323
     50 H17        -0.8596    5.7956   -6.3322 H         1 <0>         0.1258
     51 H18        -2.4008    4.0560   -1.6665 H         1 <0>         0.3865
     52 H19        -2.0050    8.7029    1.6573 H         1 <0>         0.1217
     53 H20        -3.5548    9.7771    3.2394 H         1 <0>         0.1409
     54 H21        -5.6575    6.0822    3.6769 H         1 <0>         0.1451
     55 H22        -4.1098    5.0180    2.0860 H         1 <0>         0.1398
     56 H23        -6.0870   10.3145    5.4392 H         1 <0>         0.1112
     57 H24        -4.3436   10.0979    5.1530 H         1 <0>         0.0616
     58 H25        -5.4172   10.5495    3.8069 H         1 <0>         0.0619
     59 H26         1.5779    4.0759   -1.2919 H         1 <0>         0.1562
     60 H27         1.4773    1.6347   -0.9937 H         1 <0>         0.1385
     61 H28        -1.2174    2.1534    2.2827 H         1 <0>         0.1345
     62 H29        -1.1043    4.5940    1.9836 H         1 <0>         0.1200
     63 H30        -0.4041    0.3011    2.8420 H         1 <0>         0.0592
     64 H31        -1.7864    0.2215    1.7234 H         1 <0>         0.0588
     65 H32        -0.7130   -1.1857    1.9133 H         1 <0>         0.1077
     66 N1         -0.6523    6.6307    1.0542 N.4       1 <0>        -0.5135
     67 H33        -0.6214    7.6462    0.9056 H         1 <0>         0.4290
     68 H34        -0.3944    6.4189    2.0252 H         1 <0>         0.4358
@<TRIPOS>BOND
     1    1    2 1
     2    1   37 1
     3    1   38 1
     4    1   39 1
     5    2    3 1
     6    2   40 1
     7    2   41 1
     8    3    4 1
     9    3   42 1
    10    3   43 1
    11    4    5 1
    12    4   11 1
    13    4    6 1
    14    6    7 1
    15    6   29 1
    16    6   66 1
    17    8    9 1
    18    8   10 1
    19    8   21 1
    20    8   66 1
    21   10   11 1
    22   10   44 1
    23   10   45 1
    24   11   12 1
    25   11   20 1
    26   12   13 3
    27   13   14 1
    28   14   19 ar
    29   14   15 ar
    30   15   16 ar
    31   15   46 1
    32   16   17 ar
    33   16   47 1
    34   17   18 ar
    35   17   48 1
    36   18   19 ar
    37   18   49 1
    38   19   50 1
    39   20   51 1
    40   21   26 ar
    41   21   22 ar
    42   22   23 ar
    43   22   52 1
    44   23   24 ar
    45   23   53 1
    46   24   25 ar
    47   24   27 1
    48   25   26 ar
    49   25   54 1
    50   26   55 1
    51   27   28 1
    52   28   56 1
    53   28   57 1
    54   28   58 1
    55   29   34 ar
    56   29   30 ar
    57   30   31 ar
    58   30   59 1
    59   31   32 ar
    60   31   60 1
    61   32   33 ar
    62   32   35 1
    63   33   34 ar
    64   33   61 1
    65   34   62 1
    66   35   36 1
    67   36   63 1
    68   36   64 1
    69   36   65 1
    70   66   67 1
    71   66   68 1
@<TRIPOS>MOLECULE
ZINC20568206
   63    65     0     0     0
SMALL
USER_CHARGES
3-(2,5-dichlorophenyl)-1-[(4-methoxyphenyl)methyl]-1-(2,2,6,6-tetramethyl-4-piperidyl)thiourea
@<TRIPOS>ATOM
      1 C1          2.9950    2.8878    1.0806 C.3       1 <0>        -0.1772
      2 C2          1.8870    2.3565    0.1441 C.3       1 <0>         0.0709
      3 C3          2.1732    2.8923   -1.2565 C.3       1 <0>        -0.1615
      4 C4          0.9764    2.6475   -2.1752 C.3       1 <0>         0.1077
      5 C5         -0.2385    3.3694   -1.5931 C.3       1 <0>        -0.1425
      6 C6         -0.5541    2.8374   -0.1973 C.3       1 <0>         0.0557
      7 N1          0.6079    2.7908    0.6654 N.4       1 <0>        -0.5139
      8 C7         -1.2150    1.4585   -0.3117 C.3       1 <0>        -0.1787
      9 C8         -1.5904    3.7895    0.4402 C.3       1 <0>        -0.1799
     10 N2          1.2699    3.1915   -3.5071 N.pl3     1 <0>        -0.5291
     11 C9          1.4589    4.6335   -3.6840 C.3       1 <0>         0.1376
     12 C10         2.9152    4.9753   -3.5012 C.ar      1 <0>        -0.1608
     13 C11         3.3640    5.4556   -2.2848 C.ar      1 <0>        -0.0735
     14 C12         4.6995    5.7643   -2.1130 C.ar      1 <0>        -0.2156
     15 C13         5.5886    5.6025   -3.1656 C.ar      1 <0>         0.1481
     16 C14         5.1348    5.1258   -4.3869 C.ar      1 <0>        -0.1497
     17 C15         3.7992    4.8136   -4.5520 C.ar      1 <0>        -0.0540
     18 O1          6.9019    5.9108   -3.0008 O.3       1 <0>        -0.3114
     19 C16         7.2981    6.3962   -1.7165 C.3       1 <0>         0.0225
     20 C17         1.3653    2.3643   -4.5668 C.2       1 <0>         0.5479
     21 S1          1.8087    2.9846   -6.0997 S.2       1 <0>        -0.4893
     22 N3          1.1117    1.0488   -4.4199 N.pl3     1 <0>        -0.7077
     23 C18         2.0904    0.2029   -3.8858 C.ar      1 <0>         0.2206
     24 C19         3.3115    0.7225   -3.4777 C.ar      1 <0>        -0.1704
     25 C20         4.2759   -0.1156   -2.9502 C.ar      1 <0>         0.0103
     26 C21         4.0250   -1.4713   -2.8282 C.ar      1 <0>        -0.1343
     27 C22         2.8100   -1.9915   -3.2337 C.ar      1 <0>        -0.0487
     28 C23         1.8398   -1.1579   -3.7576 C.ar      1 <0>        -0.0892
     29 Cl1         0.3120   -1.8113   -4.2604 Cl        1 <0>        -0.0454
     30 Cl2         5.8031    0.5330   -2.4396 Cl        1 <0>        -0.0446
     31 C24         1.9926    0.8268    0.1390 C.3       1 <0>        -0.1776
     32 H1          3.9779    2.5693    0.7033 H         1 <0>         0.1064
     33 H2          2.8431    2.4859    2.0932 H         1 <0>         0.0864
     34 H3          2.9528    3.9865    1.1121 H         1 <0>         0.0811
     35 H4          2.3683    3.9735   -1.2027 H         1 <0>         0.1125
     36 H5          3.0542    2.3810   -1.6718 H         1 <0>         0.1168
     37 H6          0.7803    1.5718   -2.2955 H         1 <0>         0.1170
     38 H7         -0.0277    4.4470   -1.5269 H         1 <0>         0.0996
     39 H8         -1.1094    3.2055   -2.2447 H         1 <0>         0.1156
     40 H9          0.3006    2.1244    1.4848 H         1 <0>         0.4481
     41 H10        -1.4420    1.0761    0.6944 H         1 <0>         0.0865
     42 H11        -0.5303    0.7649   -0.8218 H         1 <0>         0.0792
     43 H12        -2.1468    1.5454   -0.8898 H         1 <0>         0.1054
     44 H13        -1.8414    3.4346    1.4507 H         1 <0>         0.0873
     45 H14        -2.4999    3.8086   -0.1782 H         1 <0>         0.1083
     46 H15        -1.1677    4.8031    0.5021 H         1 <0>         0.0839
     47 H16         1.1382    4.9240   -4.6953 H         1 <0>         0.1286
     48 H17         0.8585    5.1761   -2.9390 H         1 <0>         0.0962
     49 H18         2.6706    5.5855   -1.4670 H         1 <0>         0.1167
     50 H19         5.0505    6.1349   -1.1612 H         1 <0>         0.1293
     51 H20         5.8250    4.9986   -5.2077 H         1 <0>         0.1353
     52 H21         3.4454    4.4425   -5.5025 H         1 <0>         0.1611
     53 H22         8.3780    6.6053   -1.7207 H         1 <0>         0.1072
     54 H23         7.0746    5.6369   -0.9526 H         1 <0>         0.0552
     55 H24         6.7466    7.3200   -1.4876 H         1 <0>         0.0590
     56 H25         0.1355    0.6400   -4.7198 H         1 <0>         0.4572
     57 H26         3.5076    1.7803   -3.5720 H         1 <0>         0.1401
     58 H27         4.7800   -2.1241   -2.4157 H         1 <0>         0.1485
     59 H28         2.6171   -3.0498   -3.1370 H         1 <0>         0.1521
     60 H29         1.2172    0.4079   -0.5192 H         1 <0>         0.0783
     61 H30         1.8507    0.4461    1.1612 H         1 <0>         0.0867
     62 H31         2.9857    0.5291   -0.2287 H         1 <0>         0.1043
     63 H32         0.6963    3.8200    1.0434 H         1 <0>         0.4440
@<TRIPOS>BOND
     1    1    2 1
     2    1   32 1
     3    1   33 1
     4    1   34 1
     5    2    7 1
     6    2    3 1
     7    2   31 1
     8    3    4 1
     9    3   35 1
    10    3   36 1
    11    4    5 1
    12    4   10 1
    13    4   37 1
    14    5    6 1
    15    5   38 1
    16    5   39 1
    17    6    7 1
    18    6    8 1
    19    6    9 1
    20    7   40 1
    21    7   63 1
    22    8   41 1
    23    8   42 1
    24    8   43 1
    25    9   44 1
    26    9   45 1
    27    9   46 1
    28   10   11 1
    29   10   20 1
    30   11   12 1
    31   11   47 1
    32   11   48 1
    33   12   17 ar
    34   12   13 ar
    35   13   14 ar
    36   13   49 1
    37   14   15 ar
    38   14   50 1
    39   15   16 ar
    40   15   18 1
    41   16   17 ar
    42   16   51 1
    43   17   52 1
    44   18   19 1
    45   19   53 1
    46   19   54 1
    47   19   55 1
    48   20   21 2
    49   20   22 1
    50   22   23 1
    51   22   56 1
    52   23   28 ar
    53   23   24 ar
    54   24   25 ar
    55   24   57 1
    56   25   26 ar
    57   25   30 1
    58   26   27 ar
    59   26   58 1
    60   27   28 ar
    61   27   59 1
    62   28   29 1
    63   31   60 1
    64   31   61 1
    65   31   62 1
@<TRIPOS>MOLECULE
ZINC35476905
   60    64     0     0     0
SMALL
USER_CHARGES

@<TRIPOS>ATOM
      1 C1          0.9587    1.0672   -0.2617 C.3       1 <0>        -0.1438
      2 C2          0.7735   -0.4225   -0.1293 C.ar      1 <0>         0.0786
      3 C3          0.8329   -1.2473   -1.2451 C.ar      1 <0>        -0.1691
      4 C4          0.6597   -2.6078   -1.0901 C.ar      1 <0>         0.1510
      5 N1          0.4392   -3.1307    0.1014 N.ar      1 <0>        -0.5071
      6 C5          0.3752   -2.3780    1.1887 C.ar      1 <0>         0.4483
      7 C6          0.5463   -0.9996    1.1068 C.ar      1 <0>        -0.1975
      8 N2          0.1405   -2.9708    2.4239 N.pl3     1 <0>        -0.7071
      9 C7          0.0684   -2.1441    3.6313 C.3       1 <0>         0.2563
     10 H1         -0.4932   -1.2350    3.4161 H         1 <0>         0.1245
     11 C8          1.4619   -1.7805    4.0751 C.ar      1 <0>        -0.1056
     12 C9          2.5128   -2.6429    3.8239 C.ar      1 <0>        -0.1052
     13 C10         3.7929   -2.3137    4.2287 C.ar      1 <0>        -0.0916
     14 C11         4.0255   -1.1176    4.8881 C.ar      1 <0>         0.0499
     15 C12         2.9669   -0.2489    5.1412 C.ar      1 <0>         0.0513
     16 C13         1.6875   -0.5828    4.7275 C.ar      1 <0>        -0.0838
     17 O1          3.4492    0.8478    5.7954 O.3       1 <0>        -0.3010
     18 C14         4.7395    0.4570    6.3012 C.3       1 <0>         0.2116
     19 O2          5.1712   -0.5652    5.3836 O.3       1 <0>        -0.3022
     20 C15        -0.6229   -2.9141    4.7268 C.2       1 <0>        -0.1808
     21 C16        -1.6162   -2.3218    5.4846 C.2       1 <0>        -0.1030
     22 C17        -2.2173   -3.0424    6.4617 C.2       1 <0>        -0.1699
     23 S1         -1.3785   -4.6132    6.3363 S.3       1 <0>         0.1942
     24 C18        -0.2844   -4.2086    4.9848 C.2       1 <0>         0.0702
     25 N3          0.6715   -5.0097    4.3568 N.am      1 <0>        -0.6325
     26 C19         0.9365   -6.2420    4.8339 C.2       1 <0>         0.5546
     27 O3          0.3434   -6.6561    5.8111 O.2       1 <0>        -0.4801
     28 C20         1.9483   -7.0900    4.1691 C.ar      1 <0>        -0.1413
     29 C21         2.6352   -6.6153    3.0504 C.ar      1 <0>        -0.0965
     30 C22         3.5787   -7.4118    2.4350 C.ar      1 <0>        -0.1227
     31 C23         3.8446   -8.6784    2.9242 C.ar      1 <0>        -0.0797
     32 C24         3.1670   -9.1551    4.0323 C.ar      1 <0>        -0.1162
     33 C25         2.2252   -8.3668    4.6607 C.ar      1 <0>        -0.0477
     34 C26        -3.3115   -2.6254    7.4103 C.3       1 <0>        -0.0732
     35 C27        -2.0243   -0.8940    5.2275 C.3       1 <0>        -0.1055
     36 H2          2.0159    1.3124   -0.1608 H         1 <0>         0.1073
     37 H3          0.6020    1.3922   -1.2391 H         1 <0>         0.0970
     38 H4          0.3919    1.5746    0.5190 H         1 <0>         0.0938
     39 H5          1.0125   -0.8283   -2.2242 H         1 <0>         0.1820
     40 H6          0.7048   -3.2528   -1.9552 H         1 <0>         0.2092
     41 H7          0.4982   -0.3883    1.9958 H         1 <0>         0.1771
     42 H8          0.0245   -3.9318    2.4865 H         1 <0>         0.4105
     43 H9          2.3332   -3.5761    3.3107 H         1 <0>         0.1131
     44 H10         4.6120   -2.9893    4.0311 H         1 <0>         0.1416
     45 H11         0.8653    0.0910    4.9184 H         1 <0>         0.1440
     46 H12         5.4287    1.3013    6.2858 H         1 <0>         0.1416
     47 H13         4.6493    0.0533    7.3096 H         1 <0>         0.0933
     48 H14         1.1447   -4.6793    3.5772 H         1 <0>         0.4023
     49 H15         2.4283   -5.6270    2.6674 H         1 <0>         0.1078
     50 H16         4.1106   -7.0459    1.5692 H         1 <0>         0.1334
     51 H17         4.5841   -9.2979    2.4387 H         1 <0>         0.1365
     52 H18         3.3790  -10.1449    4.4089 H         1 <0>         0.1403
     53 H19         1.7005   -8.7383    5.5285 H         1 <0>         0.1436
     54 H20        -4.2817   -2.8479    6.9662 H         1 <0>         0.0829
     55 H21        -3.2072   -3.1714    8.3479 H         1 <0>         0.0771
     56 H22        -3.2369   -1.5551    7.6030 H         1 <0>         0.0847
     57 H23        -2.8289   -0.8729    4.4924 H         1 <0>         0.0736
     58 H24        -2.3696   -0.4418    6.1572 H         1 <0>         0.0786
     59 H25        -1.1696   -0.3348    4.8469 H         1 <0>         0.0611
     60 H26         0.3209   -4.0900    0.1825 H         1 <0>         0.4402
@<TRIPOS>BOND
     1    1    2 1
     2    1   36 1
     3    1   37 1
     4    1   38 1
     5    2    7 ar
     6    2    3 ar
     7    3    4 ar
     8    3   39 1
     9    4    5 ar
    10    4   40 1
    11    5    6 ar
    12    5   60 1
    13    6    7 ar
    14    6    8 1
    15    7   41 1
    16    8    9 1
    17    8   42 1
    18    9   10 1
    19    9   11 1
    20    9   20 1
    21   11   16 ar
    22   11   12 ar
    23   12   13 ar
    24   12   43 1
    25   13   14 ar
    26   13   44 1
    27   14   19 1
    28   14   15 ar
    29   15   16 ar
    30   15   17 1
    31   16   45 1
    32   17   18 1
    33   18   19 1
    34   18   46 1
    35   18   47 1
    36   20   24 2
    37   20   21 1
    38   21   22 2
    39   21   35 1
    40   22   23 1
    41   22   34 1
    42   23   24 1
    43   24   25 1
    44   25   26 am
    45   25   48 1
    46   26   27 2
    47   26   28 1
    48   28   33 ar
    49   28   29 ar
    50   29   30 ar
    51   29   49 1
    52   30   31 ar
    53   30   50 1
    54   31   32 ar
    55   31   51 1
    56   32   33 ar
    57   32   52 1
    58   33   53 1
    59   34   54 1
    60   34   55 1
    61   34   56 1
    62   35   57 1
    63   35   58 1
    64   35   59 1
@<TRIPOS>MOLECULE
ZINC40734349
   67    71     0     0     0
SMALL
USER_CHARGES

@<TRIPOS>ATOM
      1 C1          0.0084    1.5031    0.0069 C.3       1 <0>        -0.1173
      2 C2          0.0217   -0.0038   -0.0005 C.ar      1 <0>        -0.0934
      3 C3          0.7771   -0.6917    0.9315 C.ar      1 <0>        -0.1005
      4 C4          0.7914   -2.0727    0.9274 C.ar      1 <0>        -0.1148
      5 C5          0.0458   -2.7706   -0.0138 C.ar      1 <0>         0.1332
      6 C6         -0.7120   -2.0768   -0.9480 C.ar      1 <0>        -0.1375
      7 C7         -0.7259   -0.6958   -0.9356 C.ar      1 <0>        -0.1010
      8 N1          0.0586   -4.1697   -0.0209 N.am      1 <0>        -0.6688
      9 C8          0.1754   -4.8485    1.1376 C.2       1 <0>         0.5151
     10 O1          0.1732   -4.2513    2.1932 O.2       1 <0>        -0.4854
     11 C9          0.3087   -6.3495    1.1213 C.3       1 <0>         0.0502
     12 O2          0.4169   -6.8327    2.4617 O.3       1 <0>        -0.2847
     13 C10         0.5449   -8.1769    2.6251 C.ar      1 <0>         0.1230
     14 C11        -0.5877   -8.9739    2.7613 C.ar      1 <0>         0.1322
     15 C12        -0.4521  -10.3427    2.9276 C.ar      1 <0>        -0.1661
     16 C13         0.8065  -10.9145    2.9580 C.ar      1 <0>        -0.1205
     17 C14         1.9318  -10.1235    2.8233 C.ar      1 <0>        -0.0923
     18 C15         1.8036   -8.7567    2.6508 C.ar      1 <0>        -0.0776
     19 Br1         3.3454   -7.6789    2.4584 Br        1 <0>         0.0072
     20 C16         0.9515  -12.4035    3.1390 C.3       1 <0>         0.0428
     21 N2          0.9541  -13.0587    1.8241 N.4       1 <0>        -0.5088
     22 C17         1.0954  -14.5102    2.0005 C.3       1 <0>         0.0339
     23 C18         2.4647  -14.8190    2.6093 C.3       1 <0>        -0.1027
     24 C19         2.6120  -16.3307    2.7930 C.3       1 <0>        -0.1065
     25 C20         2.4897  -17.0239    1.4345 C.3       1 <0>        -0.0943
     26 C21         3.5895  -16.5141    0.5010 C.3       1 <0>        -0.1140
     27 C22         3.4423  -15.0023    0.3173 C.3       1 <0>        -0.0927
     28 C23         3.5645  -14.3091    1.6758 C.3       1 <0>        -0.1258
     29 C24         2.0730  -14.6935   -0.2914 C.3       1 <0>        -0.1260
     30 C25         0.9732  -15.2033    0.6421 C.3       1 <0>        -0.1009
     31 C26         1.1204  -16.7151    0.8258 C.3       1 <0>        -0.1062
     32 O3         -1.8250   -8.4103    2.7316 O.3       1 <0>        -0.2909
     33 C27        -2.9420   -9.2896    2.8775 C.3       1 <0>         0.0190
     34 H1         -0.7937    1.8562    0.6550 H         1 <0>         0.0725
     35 H2          0.9644    1.8731    0.3775 H         1 <0>         0.0681
     36 H3         -0.1551    1.8700   -1.0064 H         1 <0>         0.0681
     37 H4          1.3567   -0.1484    1.6631 H         1 <0>         0.1277
     38 H5          1.3821   -2.6094    1.6550 H         1 <0>         0.1335
     39 H6         -1.2926   -2.6167   -1.6815 H         1 <0>         0.1261
     40 H7         -1.3183   -0.1557   -1.6593 H         1 <0>         0.1287
     41 H8         -0.0167   -4.6512   -0.8596 H         1 <0>         0.4110
     42 H9         -0.5697   -6.7872    0.6470 H         1 <0>         0.0927
     43 H10         1.2011   -6.6289    0.5612 H         1 <0>         0.0917
     44 H11        -1.3297  -10.9631    3.0338 H         1 <0>         0.1499
     45 H12         2.9132  -10.5738    2.8483 H         1 <0>         0.1491
     46 H13         1.8884  -12.6175    3.6533 H         1 <0>         0.1449
     47 H14         0.1176  -12.7805    3.7311 H         1 <0>         0.1441
     48 H15         0.0868  -12.8606    1.3480 H         1 <0>         0.4258
     49 H16         0.3119  -14.8734    2.6656 H         1 <0>         0.1418
     50 H17         2.5518  -14.3251    3.5771 H         1 <0>         0.0953
     51 H18         3.5875  -16.5507    3.2267 H         1 <0>         0.0856
     52 H19         1.8284  -16.6939    3.4580 H         1 <0>         0.0758
     53 H20         2.5946  -18.1009    1.5654 H         1 <0>         0.0880
     54 H21         4.5650  -16.7341    0.9347 H         1 <0>         0.0733
     55 H22         3.5024  -17.0079   -0.4668 H         1 <0>         0.0731
     56 H23         4.2258  -14.6391   -0.3477 H         1 <0>         0.0878
     57 H24         3.4596  -13.2321    1.5449 H         1 <0>         0.0564
     58 H25         4.5401  -14.5292    2.1095 H         1 <0>         0.0937
     59 H26         1.9681  -13.6165   -0.4223 H         1 <0>         0.0566
     60 H27         1.9859  -15.1873   -1.2592 H         1 <0>         0.0923
     61 H28        -0.0023  -14.9833    0.2084 H         1 <0>         0.0947
     62 H29         1.0333  -17.2089   -0.1420 H         1 <0>         0.0854
     63 H30         0.3369  -17.0783    1.4908 H         1 <0>         0.0758
     64 H31        -2.8771   -9.8034    3.8366 H         1 <0>         0.0638
     65 H32        -3.8661   -8.7130    2.8360 H         1 <0>         0.1148
     66 H33        -2.9348  -10.0230    2.0712 H         1 <0>         0.0595
     67 H34         1.7260  -12.7097    1.2760 H         1 <0>         0.4241
@<TRIPOS>BOND
     1    1    2 1
     2    1   34 1
     3    1   35 1
     4    1   36 1
     5    2    7 ar
     6    2    3 ar
     7    3    4 ar
     8    3   37 1
     9    4    5 ar
    10    4   38 1
    11    5    6 ar
    12    5    8 1
    13    6    7 ar
    14    6   39 1
    15    7   40 1
    16    8    9 am
    17    8   41 1
    18    9   10 2
    19    9   11 1
    20   11   12 1
    21   11   42 1
    22   11   43 1
    23   12   13 1
    24   13   18 ar
    25   13   14 ar
    26   14   15 ar
    27   14   32 1
    28   15   16 ar
    29   15   44 1
    30   16   17 ar
    31   16   20 1
    32   17   18 ar
    33   17   45 1
    34   18   19 1
    35   20   21 1
    36   20   46 1
    37   20   47 1
    38   21   22 1
    39   21   48 1
    40   21   67 1
    41   22   30 1
    42   22   23 1
    43   22   49 1
    44   23   28 1
    45   23   24 1
    46   23   50 1
    47   24   25 1
    48   24   51 1
    49   24   52 1
    50   25   31 1
    51   25   26 1
    52   25   53 1
    53   26   27 1
    54   26   54 1
    55   26   55 1
    56   27   28 1
    57   27   29 1
    58   27   56 1
    59   28   57 1
    60   28   58 1
    61   29   30 1
    62   29   59 1
    63   29   60 1
    64   30   31 1
    65   30   61 1
    66   31   62 1
    67   31   63 1
    68   32   33 1
    69   33   64 1
    70   33   65 1
    71   33   66 1
@<TRIPOS>MOLECULE
ZINC59199567
   70    72     0     0     0
SMALL
USER_CHARGES

@<TRIPOS>ATOM
      1 C1          1.7570    0.9119   -0.1934 C.3       1 <0>        -0.1156
      2 C2          0.8315   -0.2730   -0.0910 C.ar      1 <0>        -0.0848
      3 C3          0.0703   -0.6574   -1.1872 C.ar      1 <0>         0.1189
      4 C4         -0.7810   -1.7501   -1.0891 C.ar      1 <0>        -0.0543
      5 C5         -0.8688   -2.4517    0.0976 C.ar      1 <0>        -0.1012
      6 C6         -0.1106   -2.0672    1.1877 C.ar      1 <0>        -0.0896
      7 C7          0.7434   -0.9819    1.0920 C.ar      1 <0>        -0.0350
      8 Cl1         1.6995   -0.5072    2.4610 Cl        1 <0>        -0.0555
      9 N1          0.1607    0.0550   -2.3877 N.pl3     1 <0>        -0.6394
     10 C8          0.3378   -0.6034   -3.5503 C.2       1 <0>         0.5480
     11 S1          0.3199   -2.3151   -3.5760 S.2       1 <0>        -0.5672
     12 N2          0.5289    0.0858   -4.6927 N.pl3     1 <0>        -0.5547
     13 C9          0.6105   -0.6241   -5.9715 C.3       1 <0>         0.1568
     14 C10        -0.7678   -0.7420   -6.5695 C.ar      1 <0>        -0.1839
     15 C11        -1.5586   -1.8361   -6.2698 C.ar      1 <0>        -0.0374
     16 C12        -2.8221   -1.9472   -6.8161 C.ar      1 <0>        -0.2007
     17 C13        -3.2984   -0.9583   -7.6675 C.ar      1 <0>         0.2300
     18 C14        -2.5014    0.1394   -7.9664 C.ar      1 <0>        -0.2054
     19 C15        -1.2410    0.2471   -7.4122 C.ar      1 <0>        -0.0598
     20 N3         -4.5757   -1.0678   -8.2221 N.pl3     1 <0>        -0.6338
     21 C16        -5.4146   -2.2265   -7.9061 C.3       1 <0>         0.0873
     22 C17        -5.0764   -0.0239   -9.1197 C.3       1 <0>         0.0931
     23 C18         0.6553    1.5483   -4.6554 C.3       1 <0>         0.1184
     24 C19         1.7522    1.9326   -3.6607 C.3       1 <0>        -0.1718
     25 C20         1.8877    3.4537   -3.6015 C.3       1 <0>         0.0603
     26 N4          0.6194    4.1063   -3.3130 N.4       1 <0>        -0.4950
     27 C21        -0.5493    3.6726   -4.0618 C.3       1 <0>         0.0595
     28 C22        -0.6621    2.1560   -4.1750 C.3       1 <0>        -0.1589
     29 C23        -1.8003    4.1697   -3.2989 C.3       1 <0>        -0.1823
     30 C24        -0.5957    4.3049   -5.4552 C.3       1 <0>        -0.1731
     31 C25         2.5255    3.9781   -4.8875 C.3       1 <0>        -0.1738
     32 C26         2.8565    3.7827   -2.4422 C.3       1 <0>        -0.1845
     33 H1          2.7378    0.5786   -0.5326 H         1 <0>         0.0825
     34 H2          1.3508    1.6298   -0.9060 H         1 <0>         0.0431
     35 H3          1.8519    1.3844    0.7843 H         1 <0>         0.0855
     36 H4         -1.3744   -2.0510   -1.9398 H         1 <0>         0.1499
     37 H5         -1.5309   -3.3016    0.1740 H         1 <0>         0.1423
     38 H6         -0.1817   -2.6170    2.1146 H         1 <0>         0.1406
     39 H7          0.0959    1.0228   -2.3834 H         1 <0>         0.3947
     40 H8          1.2564   -0.0711   -6.6535 H         1 <0>         0.0921
     41 H9          1.0222   -1.6202   -5.8086 H         1 <0>         0.1261
     42 H10        -1.1875   -2.6048   -5.6081 H         1 <0>         0.1442
     43 H11        -3.4390   -2.8022   -6.5819 H         1 <0>         0.1246
     44 H12        -2.8686    0.9098   -8.6283 H         1 <0>         0.1200
     45 H13        -0.6226    1.1025   -7.6407 H         1 <0>         0.1115
     46 H14        -6.0154   -2.0100   -7.0227 H         1 <0>         0.0514
     47 H15        -6.0718   -2.4399   -8.7491 H         1 <0>         0.0712
     48 H16        -4.7808   -3.0916   -7.7113 H         1 <0>         0.0718
     49 H17        -4.4193    0.0565   -9.9857 H         1 <0>         0.0563
     50 H18        -6.0829   -0.2808   -9.4500 H         1 <0>         0.0770
     51 H19        -5.0995    0.9292   -8.5915 H         1 <0>         0.0531
     52 H20         0.8993    1.9074   -5.6512 H         1 <0>         0.1265
     53 H21         1.4962    1.5507   -2.6712 H         1 <0>         0.0996
     54 H22         2.7002    1.4955   -3.9792 H         1 <0>         0.1275
     55 H23         0.4214    3.9957   -2.3152 H         1 <0>         0.4236
     56 H24        -1.4565    1.9018   -4.8816 H         1 <0>         0.1299
     57 H25        -0.9180    1.7369   -3.1982 H         1 <0>         0.0880
     58 H26        -1.7747    5.2571   -3.2286 H         1 <0>         0.0893
     59 H27        -2.6985    3.8612   -3.8339 H         1 <0>         0.1097
     60 H28        -1.8090    3.7409   -2.2968 H         1 <0>         0.0809
     61 H29         0.2355    3.9298   -6.0523 H         1 <0>         0.0838
     62 H30        -1.5371    4.0467   -5.9402 H         1 <0>         0.1082
     63 H31        -0.5186    5.3884   -5.3653 H         1 <0>         0.0868
     64 H32         1.8693    3.7654   -5.7315 H         1 <0>         0.0834
     65 H33         2.6752    5.0547   -4.8060 H         1 <0>         0.0881
     66 H34         3.4869    3.4883   -5.0422 H         1 <0>         0.1085
     67 H35         3.8241    3.3191   -2.6346 H         1 <0>         0.1112
     68 H36         2.9798    4.8631   -2.3671 H         1 <0>         0.0896
     69 H37         2.4487    3.3978   -1.5075 H         1 <0>         0.0820
     70 H38         0.7368    5.1128   -3.4530 H         1 <0>         0.4310
@<TRIPOS>BOND
     1    1    2 1
     2    1   33 1
     3    1   34 1
     4    1   35 1
     5    2    7 ar
     6    2    3 ar
     7    3    4 ar
     8    3    9 1
     9    4    5 ar
    10    4   36 1
    11    5    6 ar
    12    5   37 1
    13    6    7 ar
    14    6   38 1
    15    7    8 1
    16    9   10 1
    17    9   39 1
    18   10   11 2
    19   10   12 1
    20   12   13 1
    21   12   23 1
    22   13   14 1
    23   13   40 1
    24   13   41 1
    25   14   19 ar
    26   14   15 ar
    27   15   16 ar
    28   15   42 1
    29   16   17 ar
    30   16   43 1
    31   17   18 ar
    32   17   20 1
    33   18   19 ar
    34   18   44 1
    35   19   45 1
    36   20   21 1
    37   20   22 1
    38   21   46 1
    39   21   47 1
    40   21   48 1
    41   22   49 1
    42   22   50 1
    43   22   51 1
    44   23   28 1
    45   23   24 1
    46   23   52 1
    47   24   25 1
    48   24   53 1
    49   24   54 1
    50   25   26 1
    51   25   31 1
    52   25   32 1
    53   26   27 1
    54   26   55 1
    55   26   70 1
    56   27   28 1
    57   27   29 1
    58   27   30 1
    59   28   56 1
    60   28   57 1
    61   29   58 1
    62   29   59 1
    63   29   60 1
    64   30   61 1
    65   30   62 1
    66   30   63 1
    67   31   64 1
    68   31   65 1
    69   31   66 1
    70   32   67 1
    71   32   68 1
    72   32   69 1
@<TRIPOS>MOLECULE
ZINC01040616
   37    39     0     0     0
SMALL
USER_CHARGES
3-(2,4-dichlorophenyl)-1-[(3-methylbenzothiophen-2-yl)methyl]thiourea
@<TRIPOS>ATOM
      1 C1          3.4373    3.8774    0.4092 C.3       1 <0>        -0.1111
      2 C2          2.0334    4.3419    0.1188 C.2       1 <0>        -0.0625
      3 C3          0.9389    3.3840    0.0626 C.ar      1 <0>        -0.0968
      4 C4          0.9785    1.9818    0.2491 C.ar      1 <0>        -0.0687
      5 C5         -0.1549    1.2366    0.1587 C.ar      1 <0>        -0.1230
      6 C6         -1.3847    1.8168   -0.1229 C.ar      1 <0>        -0.0859
      7 C7         -1.4663    3.1827   -0.3059 C.ar      1 <0>        -0.0810
      8 C8         -0.3240    3.9493   -0.2172 C.ar      1 <0>        -0.1050
      9 S1          0.0219    5.6814   -0.3834 S.3       1 <0>         0.0463
     10 C9          1.7797    5.6418   -0.0901 C.2       1 <0>        -0.1781
     11 C10         2.7498    6.7950   -0.0788 C.3       1 <0>         0.2130
     12 N1          3.2863    6.9952   -1.4272 N.pl3     1 <0>        -0.6721
     13 C11         4.1788    7.9783   -1.6583 C.2       1 <0>         0.5580
     14 S2          4.6856    8.9931   -0.3761 S.2       1 <0>        -0.6008
     15 N2          4.6724    8.1624   -2.8989 N.pl3     1 <0>        -0.6323
     16 C12         5.5294    9.2385   -3.1587 C.ar      1 <0>         0.1392
     17 C13         6.5949    9.5003   -2.3077 C.ar      1 <0>        -0.0424
     18 C14         7.4390   10.5626   -2.5661 C.ar      1 <0>        -0.0982
     19 C15         7.2240   11.3662   -3.6721 C.ar      1 <0>        -0.0161
     20 C16         6.1633   11.1083   -4.5223 C.ar      1 <0>        -0.1006
     21 C17         5.3187   10.0432   -4.2717 C.ar      1 <0>        -0.0292
     22 Cl1         3.9925    9.7150   -5.3428 Cl        1 <0>        -0.0518
     23 Cl2         8.2869   12.7008   -3.9931 Cl        1 <0>        -0.0517
     24 H1          3.9409    3.6357   -0.5267 H         1 <0>         0.0748
     25 H2          3.9833    4.6695    0.9216 H         1 <0>         0.0759
     26 H3          3.4030    2.9912    1.0428 H         1 <0>         0.0732
     27 H4          1.9197    1.4982    0.4653 H         1 <0>         0.1272
     28 H5         -0.0968    0.1682    0.3051 H         1 <0>         0.1305
     29 H6         -2.2715    1.2044   -0.1943 H         1 <0>         0.1374
     30 H7         -2.4174    3.6468   -0.5216 H         1 <0>         0.1338
     31 H8          2.2351    7.6995    0.2455 H         1 <0>         0.1080
     32 H9          3.5669    6.5758    0.6085 H         1 <0>         0.1151
     33 H10         2.9991    6.4202   -2.1537 H         1 <0>         0.4026
     34 H11         4.4338    7.5493   -3.6117 H         1 <0>         0.4104
     35 H12         6.7637    8.8735   -1.4445 H         1 <0>         0.1644
     36 H13         8.2679   10.7661   -1.9045 H         1 <0>         0.1477
     37 H14         5.9979   11.7368   -5.3849 H         1 <0>         0.1497
@<TRIPOS>BOND
     1    1    2 1
     2    1   24 1
     3    1   25 1
     4    1   26 1
     5    2   10 2
     6    2    3 1
     7    3    8 ar
     8    3    4 ar
     9    4    5 ar
    10    4   27 1
    11    5    6 ar
    12    5   28 1
    13    6    7 ar
    14    6   29 1
    15    7    8 ar
    16    7   30 1
    17    8    9 1
    18    9   10 1
    19   10   11 1
    20   11   12 1
    21   11   31 1
    22   11   32 1
    23   12   13 1
    24   12   33 1
    25   13   14 2
    26   13   15 1
    27   15   16 1
    28   15   34 1
    29   16   21 ar
    30   16   17 ar
    31   17   18 ar
    32   17   35 1
    33   18   19 ar
    34   18   36 1
    35   19   20 ar
    36   19   23 1
    37   20   21 ar
    38   20   37 1
    39   21   22 1
@<TRIPOS>MOLECULE
ZINC08702116
   35    37     0     0     0
SMALL
USER_CHARGES
4,6-dibromo-3-(5-ethylbenzooxazol-2-yl)-2-methyl-aniline
@<TRIPOS>ATOM
      1 C1         -0.7402    1.4462   -1.2297 C.3       1 <0>        -0.1492
      2 C2         -0.0298    0.8788    0.0009 C.3       1 <0>        -0.0832
      3 C3         -0.7063    1.3841    1.2491 C.ar      1 <0>        -0.0818
      4 C4         -0.2753    2.5644    1.8369 C.ar      1 <0>        -0.0845
      5 C5         -0.8873    3.0429    2.9769 C.ar      1 <0>        -0.0897
      6 C6         -1.9342    2.3360    3.5479 C.ar      1 <0>         0.0124
      7 C7         -2.3704    1.1379    2.9593 C.ar      1 <0>         0.0232
      8 C8         -1.7444    0.6685    1.8018 C.ar      1 <0>        -0.0565
      9 N1         -3.3923    0.6766    3.7252 N.2       1 <0>        -0.4468
     10 C9         -3.5868    1.5114    4.7145 C.2       1 <0>         0.2828
     11 O1         -2.7138    2.5333    4.6343 O.3       1 <0>        -0.1904
     12 C10        -4.6140    1.3551    5.7654 C.ar      1 <0>         0.0607
     13 C11        -5.9321    1.0577    5.4171 C.ar      1 <0>        -0.1013
     14 C12        -6.8887    0.9065    6.4080 C.ar      1 <0>         0.2626
     15 C13        -6.5365    1.0628    7.7448 C.ar      1 <0>        -0.1508
     16 C14        -5.2319    1.3636    8.0901 C.ar      1 <0>        -0.0157
     17 C15        -4.2699    1.5102    7.1101 C.ar      1 <0>        -0.1158
     18 Br1        -2.4873    1.9216    7.5887 Br        1 <0>        -0.0237
     19 Br2        -7.8465    0.8640    9.0940 Br        1 <0>        -0.0272
     20 N2         -8.2091    0.6024    6.0641 N.pl3     1 <0>        -0.8565
     21 C16        -6.3128    0.8954    3.9680 C.3       1 <0>        -0.1067
     22 H1         -0.6934    2.5350   -1.2064 H         1 <0>         0.0570
     23 H2         -0.2508    1.0807   -2.1325 H         1 <0>         0.0611
     24 H3         -1.7824    1.1272   -1.2268 H         1 <0>         0.0565
     25 H4         -0.0765   -0.2100   -0.0224 H         1 <0>         0.0760
     26 H5          1.0125    1.1978   -0.0020 H         1 <0>         0.0774
     27 H6          0.5430    3.1148    1.3966 H         1 <0>         0.1418
     28 H7         -0.5484    3.9646    3.4264 H         1 <0>         0.1378
     29 H8         -2.0732   -0.2522    1.3428 H         1 <0>         0.1367
     30 H9         -4.9642    1.4838    9.1295 H         1 <0>         0.1521
     31 H10        -8.8797    0.5005    6.7575 H         1 <0>         0.4073
     32 H11        -8.4548    0.4934    5.1321 H         1 <0>         0.4075
     33 H12        -6.2462   -0.1566    3.6905 H         1 <0>         0.0856
     34 H13        -7.3338    1.2465    3.8190 H         1 <0>         0.0680
     35 H14        -5.6336    1.4788    3.3464 H         1 <0>         0.0735
@<TRIPOS>BOND
     1    1    2 1
     2    1   22 1
     3    1   23 1
     4    1   24 1
     5    2    3 1
     6    2   25 1
     7    2   26 1
     8    3    8 ar
     9    3    4 ar
    10    4    5 ar
    11    4   27 1
    12    5    6 ar
    13    5   28 1
    14    6   11 1
    15    6    7 ar
    16    7    8 ar
    17    7    9 1
    18    8   29 1
    19    9   10 2
    20   10   11 1
    21   10   12 1
    22   12   17 ar
    23   12   13 ar
    24   13   14 ar
    25   13   21 1
    26   14   15 ar
    27   14   20 1
    28   15   16 ar
    29   15   19 1
    30   16   17 ar
    31   16   30 1
    32   17   18 1
    33   20   31 1
    34   20   32 1
    35   21   33 1
    36   21   34 1
    37   21   35 1
@<TRIPOS>MOLECULE
ZINC35628997
   37    38     0     0     0
SMALL
USER_CHARGES

@<TRIPOS>ATOM
      1 C1         -3.8557    1.0921    1.9378 C.3       1 <0>        -0.1125
      2 C2         -3.2199   -0.1858    1.4543 C.ar      1 <0>        -0.0953
      3 C3         -3.6198   -0.7447    0.2543 C.ar      1 <0>        -0.1055
      4 C4         -3.0390   -1.9161   -0.1909 C.ar      1 <0>        -0.1433
      5 C5         -2.0531   -2.5319    0.5668 C.ar      1 <0>         0.1041
      6 C6         -1.6534   -1.9690    1.7699 C.ar      1 <0>        -0.1224
      7 C7         -2.2339   -0.7943    2.2083 C.ar      1 <0>        -0.0802
      8 C8         -0.5829   -2.6351    2.5954 C.3       1 <0>         0.2074
      9 H1         -0.6718   -3.7174    2.5006 H         1 <0>         0.0957
     10 C9          0.7944   -2.1910    2.0988 C.3       1 <0>        -0.1563
     11 N1         -0.7417   -2.2534    4.0009 N.pl3     1 <0>        -0.7695
     12 C10        -1.3510   -3.1337    4.8996 C.ar      1 <0>         0.2280
     13 C11        -0.7421   -4.3432    5.2109 C.ar      1 <0>        -0.1067
     14 C12        -1.3472   -5.2108    6.1003 C.ar      1 <0>        -0.0651
     15 C13        -2.5574   -4.8766    6.6798 C.ar      1 <0>        -0.0898
     16 C14        -3.1665   -3.6740    6.3721 C.ar      1 <0>        -0.0655
     17 C15        -2.5643   -2.7987    5.4883 C.ar      1 <0>        -0.1055
     18 Br1        -3.3944   -1.1509    5.0743 Br        1 <0>        -0.0307
     19 C16        -3.2143   -5.8257    7.6488 C.3       1 <0>        -0.1135
     20 Br2         0.9122   -4.8019    4.4180 Br        1 <0>        -0.0315
     21 O1         -1.4803   -3.6847    0.1312 O.3       1 <0>        -0.4962
     22 H2         -3.2930    1.9445    1.5574 H         1 <0>         0.0706
     23 H3         -4.8833    1.1454    1.5782 H         1 <0>         0.0665
     24 H4         -3.8507    1.1106    3.0277 H         1 <0>         0.0594
     25 H5         -4.3872   -0.2651   -0.3351 H         1 <0>         0.1233
     26 H6         -3.3521   -2.3526   -1.1278 H         1 <0>         0.1265
     27 H7         -1.9202   -0.3535    3.1430 H         1 <0>         0.1289
     28 H8          0.9603   -2.5781    1.0935 H         1 <0>         0.0646
     29 H9          0.8405   -1.1021    2.0811 H         1 <0>         0.0590
     30 H10         1.5636   -2.5764    2.7681 H         1 <0>         0.0706
     31 H11        -0.4241   -1.3898    4.3078 H         1 <0>         0.4023
     32 H12        -0.8745   -6.1511    6.3426 H         1 <0>         0.1388
     33 H13        -4.1120   -3.4166    6.8261 H         1 <0>         0.1383
     34 H14        -2.8754   -5.6039    8.6608 H         1 <0>         0.0759
     35 H15        -4.2966   -5.7091    7.5943 H         1 <0>         0.0715
     36 H16        -2.9458   -6.8504    7.3922 H         1 <0>         0.0717
     37 H17        -0.6966   -3.5510   -0.4192 H         1 <0>         0.3868
@<TRIPOS>BOND
     1    1    2 1
     2    1   22 1
     3    1   23 1
     4    1   24 1
     5    2    7 ar
     6    2    3 ar
     7    3    4 ar
     8    3   25 1
     9    4    5 ar
    10    4   26 1
    11    5    6 ar
    12    5   21 1
    13    6    7 ar
    14    6    8 1
    15    7   27 1
    16    8    9 1
    17    8   10 1
    18    8   11 1
    19   10   28 1
    20   10   29 1
    21   10   30 1
    22   11   12 1
    23   11   31 1
    24   12   17 ar
    25   12   13 ar
    26   13   14 ar
    27   13   20 1
    28   14   15 ar
    29   14   32 1
    30   15   16 ar
    31   15   19 1
    32   16   17 ar
    33   16   33 1
    34   17   18 1
    35   19   34 1
    36   19   35 1
    37   19   36 1
    38   21   37 1
@<TRIPOS>MOLECULE
ZINC40906508
   32    33     0     0     0
SMALL
USER_CHARGES

@<TRIPOS>ATOM
      1 C1         -0.0173    1.4248    0.0099 C.3       1 <0>         0.0250
      2 O1          0.0021   -0.0041    0.0020 O.3       1 <0>        -0.3137
      3 C2         -1.2002   -0.6374    0.0101 C.ar      1 <0>         0.1565
      4 C3         -2.3748    0.1020    0.0195 C.ar      1 <0>        -0.2195
      5 C4         -3.5974   -0.5413    0.0278 C.ar      1 <0>        -0.0410
      6 C5         -3.6542   -1.9221    0.0271 C.ar      1 <0>        -0.1791
      7 C6         -2.4829   -2.6658    0.0177 C.ar      1 <0>         0.1684
      8 C7         -1.2547   -2.0225    0.0032 C.ar      1 <0>        -0.1841
      9 O2         -2.5394   -4.0236    0.0171 O.3       1 <0>        -0.4885
     10 C8         -4.9895   -2.6206    0.0372 C.3       1 <0>         0.1769
     11 N1         -5.3002   -3.0606    1.3996 N.pl3     1 <0>        -0.7266
     12 C9         -6.4953   -3.7371    1.6600 C.ar      1 <0>         0.2496
     13 C10        -7.3866   -3.9980    0.6274 C.ar      1 <0>        -0.1873
     14 C11        -8.5665   -4.6671    0.8877 C.ar      1 <0>        -0.0283
     15 C12        -8.8618   -5.0772    2.1755 C.ar      1 <0>        -0.1526
     16 C13        -7.9769   -4.8188    3.2068 C.ar      1 <0>        -0.0251
     17 C14        -6.7916   -4.1552    2.9520 C.ar      1 <0>        -0.1137
     18 Cl1        -5.6780   -3.8375    4.2452 Cl        1 <0>        -0.0627
     19 I1        -10.6533   -6.0911    2.5647 I         1 <0>        -0.0396
     20 H1          1.0053    1.8021    0.0021 H         1 <0>         0.1042
     21 H2         -0.5445    1.7859   -0.8732 H         1 <0>         0.0588
     22 H3         -0.5275    1.7763    0.9067 H         1 <0>         0.0587
     23 H4         -2.3329    1.1812    0.0208 H         1 <0>         0.1346
     24 H5         -4.5102    0.0359    0.0352 H         1 <0>         0.1334
     25 H6         -0.3419   -2.5996   -0.0087 H         1 <0>         0.1402
     26 H7         -2.5625   -4.4159   -0.8664 H         1 <0>         0.3955
     27 H8         -5.7618   -1.9331   -0.3076 H         1 <0>         0.0721
     28 H9         -4.9518   -3.4861   -0.6244 H         1 <0>         0.0719
     29 H10        -4.6766   -2.8825    2.1209 H         1 <0>         0.4070
     30 H11        -7.1574   -3.6777   -0.3782 H         1 <0>         0.1374
     31 H12        -9.2597   -4.8701    0.0848 H         1 <0>         0.1338
     32 H13        -8.2105   -5.1396    4.2113 H         1 <0>         0.1376
@<TRIPOS>BOND
     1    1    2 1
     2    1   20 1
     3    1   21 1
     4    1   22 1
     5    2    3 1
     6    3    8 ar
     7    3    4 ar
     8    4    5 ar
     9    4   23 1
    10    5    6 ar
    11    5   24 1
    12    6    7 ar
    13    6   10 1
    14    7    8 ar
    15    7    9 1
    16    8   25 1
    17    9   26 1
    18   10   11 1
    19   10   27 1
    20   10   28 1
    21   11   12 1
    22   11   29 1
    23   12   17 ar
    24   12   13 ar
    25   13   14 ar
    26   13   30 1
    27   14   15 ar
    28   14   31 1
    29   15   16 ar
    30   15   19 1
    31   16   17 ar
    32   16   32 1
    33   17   18 1
@<TRIPOS>MOLECULE
ZINC54621859
   43    46     0     0     0
SMALL
USER_CHARGES

@<TRIPOS>ATOM
      1 C1          0.1932    1.3678   -0.2074 C.3       1 <0>        -0.1095
      2 C2          0.2547   -0.1372   -0.1587 C.ar      1 <0>         0.1600
      3 C3          0.3996   -0.8490   -1.3477 C.ar      1 <0>        -0.1640
      4 C4          0.4572   -2.2133   -1.3223 C.ar      1 <0>        -0.0559
      5 C5          0.3663   -2.8587   -0.0745 C.ar      1 <0>        -0.0941
      6 C6          0.4183   -4.2584    0.0301 C.ar      1 <0>        -0.0911
      7 C7          0.3276   -4.8479    1.2542 C.ar      1 <0>        -0.0987
      8 C8          0.1835   -4.0826    2.4085 C.ar      1 <0>        -0.1049
      9 C9          0.1290   -2.7194    2.3464 C.ar      1 <0>         0.1562
     10 C10         0.2199   -2.0738    1.0953 C.ar      1 <0>         0.1128
     11 N1          0.1757   -0.7419    1.0017 N.ar      1 <0>        -0.4621
     12 O1         -0.0123   -1.9892    3.4831 O.3       1 <0>        -0.4761
     13 C11         0.0857   -4.7690    3.7465 C.3       1 <0>         0.2855
     14 H1         -0.5576   -4.1876    4.4069 H         1 <0>         0.1214
     15 C12         1.4598   -4.8817    4.3549 C.2       1 <0>        -0.1637
     16 C13         2.0353   -4.1131    5.3117 C.2       1 <0>        -0.1476
     17 C14         3.3224   -4.4055    5.7220 C.2       1 <0>        -0.1575
     18 C15         3.9712   -5.4521    5.1554 C.2       1 <0>        -0.1713
     19 S1          2.7491   -6.0668    4.0082 S.3       1 <0>         0.0588
     20 N2         -0.4807   -6.1083    3.5680 N.pl3     1 <0>        -0.7327
     21 C16        -1.1464   -6.7321    4.6265 C.ar      1 <0>         0.2357
     22 C17        -1.2768   -6.0810    5.8468 C.ar      1 <0>        -0.1758
     23 C18        -1.9350   -6.6993    6.8916 C.ar      1 <0>        -0.0482
     24 C19        -2.4645   -7.9668    6.7245 C.ar      1 <0>        -0.0860
     25 C20        -2.3359   -8.6188    5.5096 C.ar      1 <0>         0.0189
     26 C21        -1.6837   -8.0015    4.4586 C.ar      1 <0>        -0.1740
     27 Cl1        -3.0004  -10.2094    5.3041 Cl        1 <0>        -0.0475
     28 Cl2        -3.2908   -8.7411    8.0403 Cl        1 <0>        -0.0564
     29 H2          1.2009    1.7754   -0.1262 H         1 <0>         0.0830
     30 H3         -0.2512    1.6829   -1.1515 H         1 <0>         0.0791
     31 H4         -0.4144    1.7336    0.6202 H         1 <0>         0.0812
     32 H5          0.4661   -0.3225   -2.2883 H         1 <0>         0.1415
     33 H6          0.5689   -2.7812   -2.2341 H         1 <0>         0.1442
     34 H7          0.5295   -4.8646   -0.8568 H         1 <0>         0.1377
     35 H8          0.3677   -5.9245    1.3308 H         1 <0>         0.1287
     36 H9          0.8253   -1.7388    3.8964 H         1 <0>         0.3930
     37 H10         1.4963   -3.2845    5.7468 H         1 <0>         0.1350
     38 H11         3.8042   -3.8087    6.4824 H         1 <0>         0.1354
     39 H12         4.9673   -5.8210    5.3503 H         1 <0>         0.1857
     40 H13        -0.3936   -6.5620    2.7151 H         1 <0>         0.4045
     41 H14        -0.8633   -5.0920    5.9784 H         1 <0>         0.1361
     42 H15        -2.0364   -6.1931    7.8402 H         1 <0>         0.1424
     43 H16        -1.5876   -8.5080    3.5096 H         1 <0>         0.1403
@<TRIPOS>BOND
     1    1    2 1
     2    1   29 1
     3    1   30 1
     4    1   31 1
     5    2   11 ar
     6    2    3 ar
     7    3    4 ar
     8    3   32 1
     9    4    5 ar
    10    4   33 1
    11    5   10 ar
    12    5    6 ar
    13    6    7 ar
    14    6   34 1
    15    7    8 ar
    16    7   35 1
    17    8    9 ar
    18    8   13 1
    19    9   10 ar
    20    9   12 1
    21   10   11 ar
    22   12   36 1
    23   13   14 1
    24   13   15 1
    25   13   20 1
    26   15   19 1
    27   15   16 2
    28   16   17 1
    29   16   37 1
    30   17   18 2
    31   17   38 1
    32   18   19 1
    33   18   39 1
    34   20   21 1
    35   20   40 1
    36   21   26 ar
    37   21   22 ar
    38   22   23 ar
    39   22   41 1
    40   23   24 ar
    41   23   42 1
    42   24   25 ar
    43   24   28 1
    44   25   26 ar
    45   25   27 1
    46   26   43 1
@<TRIPOS>MOLECULE
ZINC34958720
   32    33     0     0     0
SMALL
USER_CHARGES

@<TRIPOS>ATOM
      1 C1         -0.4633    1.1695   -0.2956 C.ar      1 <0>        -0.1476
      2 C2          0.6206    2.0309   -0.3421 C.ar      1 <0>        -0.0168
      3 C3          1.9083    1.5362   -0.2853 C.ar      1 <0>        -0.2062
      4 C4          2.1243    0.1701   -0.1811 C.ar      1 <0>         0.1893
      5 C5          1.0308   -0.7039   -0.1332 C.ar      1 <0>        -0.2025
      6 C6         -0.2664   -0.1905   -0.1916 C.ar      1 <0>        -0.0268
      7 C7          1.2486   -2.1604   -0.0228 C.cat     1 <0>         0.6173
      8 N1          0.6934   -2.8432    0.9779 N.pl3     1 <0>        -0.7580
      9 N2          2.0005   -2.7919   -0.9237 N.pl3     1 <0>        -0.7467
     10 O1          3.3892   -0.3175   -0.1261 O.3       1 <0>        -0.3140
     11 C8          4.4541    0.6338   -0.1805 C.3       1 <0>         0.1028
     12 C9          5.7756   -0.0868   -0.1074 C.ar      1 <0>        -0.0966
     13 C10         6.3609   -0.3339    1.1207 C.ar      1 <0>        -0.0764
     14 C11         7.5730   -0.9943    1.1891 C.ar      1 <0>        -0.0988
     15 C12         8.2013   -1.4089    0.0283 C.ar      1 <0>        -0.0166
     16 C13         7.6151   -1.1620   -1.2013 C.ar      1 <0>        -0.0369
     17 C14         6.3991   -0.5054   -1.2676 C.ar      1 <0>        -0.0752
     18 Cl1         8.4024   -1.6811   -2.6588 Cl        1 <0>        -0.0316
     19 Cl2         9.7242   -2.2380    0.1136 Cl        1 <0>        -0.0291
     20 H1         -1.4671    1.5659   -0.3364 H         1 <0>         0.1487
     21 H2          0.4574    3.0954   -0.4237 H         1 <0>         0.1477
     22 H3          2.7485    2.2138   -0.3225 H         1 <0>         0.1502
     23 H4         -1.1144   -0.8584   -0.1553 H         1 <0>         0.1471
     24 H5          0.2086   -2.3740    1.6749 H         1 <0>         0.4474
     25 H6          2.4046   -2.2950   -1.6521 H         1 <0>         0.4473
     26 H7          2.1436   -3.7486   -0.8511 H         1 <0>         0.4307
     27 H8          4.3956    1.1916   -1.1151 H         1 <0>         0.0901
     28 H9          4.3691    1.3229    0.6598 H         1 <0>         0.0908
     29 H10         5.8707   -0.0103    2.0270 H         1 <0>         0.1423
     30 H11         8.0300   -1.1863    2.1486 H         1 <0>         0.1509
     31 H12         5.9393   -0.3159   -2.2263 H         1 <0>         0.1460
     32 H13         0.7740   -3.8093    1.0094 H         1 <0>         0.4311
@<TRIPOS>BOND
     1    1    6 ar
     2    1    2 ar
     3    1   20 1
     4    2    3 ar
     5    2   21 1
     6    3    4 ar
     7    3   22 1
     8    4    5 ar
     9    4   10 1
    10    5    6 ar
    11    5    7 1
    12    6   23 1
    13    7    8 2
    14    7    9 1
    15    8   24 1
    16    8   32 1
    17    9   25 1
    18    9   26 1
    19   10   11 1
    20   11   12 1
    21   11   27 1
    22   11   28 1
    23   12   17 ar
    24   12   13 ar
    25   13   14 ar
    26   13   29 1
    27   14   15 ar
    28   14   30 1
    29   15   16 ar
    30   15   19 1
    31   16   17 ar
    32   16   18 1
    33   17   31 1
@<TRIPOS>MOLECULE
ZINC19809614
   54    56     0     0     0
SMALL
USER_CHARGES

@<TRIPOS>ATOM
      1 C1          1.4258    1.9120   -0.1680 C.3       1 <0>        -0.1707
      2 C2          1.1402    0.4195    0.0106 C.3       1 <0>         0.1495
      3 H1          0.0852    0.2770    0.2448 H         1 <0>         0.0977
      4 C3          1.9952   -0.1301    1.1542 C.3       1 <0>        -0.0603
      5 C4          3.4760    0.0699    0.8255 C.3       1 <0>        -0.1039
      6 C5          4.3311   -0.4797    1.9690 C.3       1 <0>        -0.0861
      7 C6          3.9909    0.2631    3.2627 C.3       1 <0>        -0.1113
      8 C7          2.5101    0.0630    3.5914 C.3       1 <0>        -0.0860
      9 C8          1.6551    0.6126    2.4478 C.3       1 <0>        -0.1026
     10 C9          2.2245   -1.4295    3.7700 C.3       1 <0>        -0.1119
     11 C10         2.5646   -2.1722    2.4763 C.3       1 <0>        -0.0864
     12 C11         4.0454   -1.9721    2.1476 C.3       1 <0>        -0.1097
     13 C12         1.7096   -1.6226    1.3328 C.3       1 <0>        -0.0991
     14 N1          1.4658   -0.2917   -1.2281 N.am      1 <0>        -0.6932
     15 C13         0.5567   -0.3683   -2.2201 C.2       1 <0>         0.5010
     16 O1         -0.5310    0.1514   -2.0873 O.2       1 <0>        -0.5226
     17 C14         0.8917   -1.0999   -3.4943 C.3       1 <0>         0.0044
     18 H2          1.9226   -0.8854   -3.7762 H         1 <0>         0.1645
     19 C15         0.7251   -2.6052   -3.2770 C.3       1 <0>        -0.1389
     20 C16         1.1917   -3.3555   -4.5261 C.3       1 <0>        -0.1024
     21 C17         2.6966   -3.1511   -4.7115 C.3       1 <0>        -0.1654
     22 C18         0.8957   -4.8480   -4.3649 C.3       1 <0>        -0.1553
     23 N2         -0.0110   -0.6569   -4.5652 N.4       1 <0>        -0.6205
     24 H3          2.4808    2.0545   -0.4022 H         1 <0>         0.0659
     25 H4          0.8167    2.3035   -0.9827 H         1 <0>         0.0593
     26 H5          1.1835    2.4411    0.7536 H         1 <0>         0.0804
     27 H6          3.7183   -0.4592   -0.0962 H         1 <0>         0.0537
     28 H7          3.6795    1.1332    0.6982 H         1 <0>         0.0716
     29 H8          5.3860   -0.3372    1.7348 H         1 <0>         0.0732
     30 H9          4.6001   -0.1285    4.0773 H         1 <0>         0.0663
     31 H10         4.1944    1.3263    3.1354 H         1 <0>         0.0639
     32 H11         2.2678    0.5921    4.5130 H         1 <0>         0.0757
     33 H12         1.8586    1.6759    2.3206 H         1 <0>         0.0711
     34 H13         0.6001    0.4701    2.6820 H         1 <0>         0.0669
     35 H14         2.8336   -1.8210    4.5847 H         1 <0>         0.0662
     36 H15         1.1695   -1.5720    4.0041 H         1 <0>         0.0633
     37 H16         2.3611   -3.2355    2.6036 H         1 <0>         0.0720
     38 H17         4.2877   -2.5013    1.2260 H         1 <0>         0.0591
     39 H18         4.6546   -2.3637    2.9623 H         1 <0>         0.0665
     40 H19         0.6546   -1.7651    1.5669 H         1 <0>         0.0643
     41 H20         1.9519   -2.1517    0.4111 H         1 <0>         0.0560
     42 H21         2.3358   -0.7074   -1.3343 H         1 <0>         0.4079
     43 H22         1.3236   -2.9172   -2.4211 H         1 <0>         0.1174
     44 H23        -0.3244   -2.8311   -3.0883 H         1 <0>         0.1006
     45 H24         0.6627   -2.9725   -5.3988 H         1 <0>         0.0677
     46 H25         3.2255   -3.5342   -3.8388 H         1 <0>         0.0706
     47 H26         3.0290   -3.6857   -5.6014 H         1 <0>         0.0739
     48 H27         2.9074   -2.0879   -4.8264 H         1 <0>         0.0525
     49 H28         1.4393   -5.2351   -3.5031 H         1 <0>         0.0665
     50 H29        -0.1742   -4.9920   -4.2144 H         1 <0>         0.0629
     51 H30         1.2113   -5.3800   -5.2624 H         1 <0>         0.0702
     52 H31         0.0210    0.3490   -4.6374 H         1 <0>         0.4409
     53 H32         0.2791   -1.0664   -5.4405 H         1 <0>         0.4404
     54 H33        -0.9532   -0.9490   -4.3531 H         1 <0>         0.4421
@<TRIPOS>BOND
     1    1    2 1
     2    1   24 1
     3    1   25 1
     4    1   26 1
     5    2    3 1
     6    2    4 1
     7    2   14 1
     8    4    9 1
     9    4   13 1
    10    4    5 1
    11    5    6 1
    12    5   27 1
    13    5   28 1
    14    6   12 1
    15    6    7 1
    16    6   29 1
    17    7    8 1
    18    7   30 1
    19    7   31 1
    20    8    9 1
    21    8   10 1
    22    8   32 1
    23    9   33 1
    24    9   34 1
    25   10   11 1
    26   10   35 1
    27   10   36 1
    28   11   12 1
    29   11   13 1
    30   11   37 1
    31   12   38 1
    32   12   39 1
    33   13   40 1
    34   13   41 1
    35   14   15 am
    36   14   42 1
    37   15   16 2
    38   15   17 1
    39   17   18 1
    40   17   19 1
    41   17   23 1
    42   19   20 1
    43   19   43 1
    44   19   44 1
    45   20   21 1
    46   20   22 1
    47   20   45 1
    48   21   46 1
    49   21   47 1
    50   21   48 1
    51   22   49 1
    52   22   50 1
    53   22   51 1
    54   23   52 1
    55   23   53 1
    56   23   54 1
@<TRIPOS>MOLECULE
ZINC49189271
   40    41     0     0     0
SMALL
USER_CHARGES

@<TRIPOS>ATOM
      1 C1         -0.0187    1.5258    0.0104 C.3       1 <0>        -0.1658
      2 C2          0.0021   -0.0041    0.0020 C.3       1 <0>         0.1480
      3 H1         -1.0205   -0.3814    0.0098 H         1 <0>         0.0935
      4 C3          0.7421   -0.5109    1.2415 C.3       1 <0>        -0.0756
      5 C4          0.6567   -2.0144    1.2978 C.2       1 <0>        -0.1166
      6 C5         -0.3913   -2.6335    1.9528 C.2       1 <0>        -0.1567
      7 C6         -0.4382   -3.9878    1.9848 C.2       1 <0>        -0.1646
      8 S1          1.0297   -4.4299    1.0700 S.3       1 <0>         0.0364
      9 C7          1.6035   -2.7799    0.7020 C.2       1 <0>        -0.1807
     10 N1          0.6878   -0.4765   -1.2033 N.am      1 <0>        -0.7123
     11 C8          0.0062   -0.6081   -2.3585 C.2       1 <0>         0.5603
     12 O1         -1.1775   -0.3349   -2.4004 O.2       1 <0>        -0.5332
     13 C9          0.6983   -1.0850   -3.5751 C.ar      1 <0>        -0.1290
     14 C10         2.0571   -1.4049   -3.5275 C.ar      1 <0>        -0.0576
     15 C11         2.7046   -1.8502   -4.6624 C.ar      1 <0>        -0.1190
     16 C12         2.0147   -1.9824   -5.8515 C.ar      1 <0>        -0.0552
     17 C13         0.6564   -1.6656   -5.9132 C.ar      1 <0>        -0.0421
     18 C14        -0.0047   -1.2217   -4.7701 C.ar      1 <0>        -0.0255
     19 C15        -0.0571   -1.8025   -7.1472 C.1       1 <0>         0.0165
     20 C16        -0.6420   -1.9147   -8.1589 C.1       1 <0>        -0.2871
     21 C17        -1.3754   -2.0554   -9.4274 C.3       1 <0>         0.1451
     22 N2         -2.7769   -1.6624   -9.2290 N.4       1 <0>        -0.6377
     23 H2          1.0039    1.9031    0.0027 H         1 <0>         0.0604
     24 H3         -0.5459    1.8868   -0.8726 H         1 <0>         0.0625
     25 H4         -0.5289    1.8773    0.9072 H         1 <0>         0.0720
     26 H5          1.7879   -0.2080    1.1895 H         1 <0>         0.0806
     27 H6          0.2852   -0.0874    2.1360 H         1 <0>         0.0938
     28 H7         -1.1610   -2.0469    2.4322 H         1 <0>         0.1352
     29 H8         -1.1728   -4.6322    2.4448 H         1 <0>         0.1868
     30 H9          2.4785   -2.4716    0.1491 H         1 <0>         0.1792
     31 H10         1.6324   -0.6946   -1.1699 H         1 <0>         0.3981
     32 H11         2.6024   -1.3034   -2.6008 H         1 <0>         0.1357
     33 H12         3.7554   -2.0959   -4.6203 H         1 <0>         0.1454
     34 H13         2.5272   -2.3313   -6.7358 H         1 <0>         0.1380
     35 H14        -1.0565   -0.9799   -4.8113 H         1 <0>         0.1419
     36 H15        -0.9215   -1.4137  -10.1826 H         1 <0>         0.1533
     37 H16        -1.3324   -3.0929   -9.7588 H         1 <0>         0.1533
     38 H17        -3.1970   -2.2565   -8.5299 H         1 <0>         0.4391
     39 H18        -2.8167   -0.7020   -8.9222 H         1 <0>         0.4390
     40 H19        -3.2796   -1.7589  -10.0985 H         1 <0>         0.4443
@<TRIPOS>BOND
     1    1    2 1
     2    1   23 1
     3    1   24 1
     4    1   25 1
     5    2    3 1
     6    2    4 1
     7    2   10 1
     8    4    5 1
     9    4   26 1
    10    4   27 1
    11    5    9 2
    12    5    6 1
    13    6    7 2
    14    6   28 1
    15    7    8 1
    16    7   29 1
    17    8    9 1
    18    9   30 1
    19   10   11 am
    20   10   31 1
    21   11   12 2
    22   11   13 1
    23   13   18 ar
    24   13   14 ar
    25   14   15 ar
    26   14   32 1
    27   15   16 ar
    28   15   33 1
    29   16   17 ar
    30   16   34 1
    31   17   18 ar
    32   17   19 1
    33   18   35 1
    34   19   20 3
    35   20   21 1
    36   21   22 1
    37   21   36 1
    38   21   37 1
    39   22   38 1
    40   22   39 1
    41   22   40 1
@<TRIPOS>MOLECULE
ZINC52906218
   40    41     0     0     0
SMALL
USER_CHARGES

@<TRIPOS>ATOM
      1 C1         -0.0148    1.5339   -0.0046 C.3       1 <0>        -0.1766
      2 C2         -0.0024    0.0040    0.0023 C.3       1 <0>         0.1291
      3 H1          0.5087   -0.3592   -0.8894 H         1 <0>         0.1084
      4 C3          0.7309   -0.4945    1.2491 C.3       1 <0>        -0.0158
      5 N1          0.6396   -1.9591    1.3182 N.4       1 <0>        -0.3956
      6 C4          1.4358   -2.5740    0.2255 C.3       1 <0>        -0.0096
      7 C5          1.7048   -4.0081    0.7466 C.3       1 <0>        -0.1447
      8 C6          1.9260   -3.7897    2.2610 C.3       1 <0>        -0.1449
      9 C7          1.2391   -2.4486    2.5786 C.3       1 <0>        -0.0110
     10 N2         -1.3795   -0.4956    0.0133 N.pl3     1 <0>        -0.7562
     11 C8         -2.0761   -0.6393   -1.1805 C.ar      1 <0>         0.2450
     12 C9         -1.5135   -0.2045   -2.3735 C.ar      1 <0>        -0.1865
     13 C10        -2.2067   -0.3475   -3.5585 C.ar      1 <0>        -0.0354
     14 C11        -3.4664   -0.9240   -3.5698 C.ar      1 <0>        -0.1464
     15 C12        -4.0426   -1.3622   -2.3958 C.ar      1 <0>         0.0419
     16 C13        -3.3499   -1.2300   -1.1875 C.ar      1 <0>        -0.1649
     17 C14        -3.9551   -1.7010    0.0689 C.2       1 <0>         0.3800
     18 S1         -5.0198   -0.6826    0.9407 S.2       1 <0>        -0.4838
     19 N3         -3.6710   -2.9341    0.5329 N.pl3     1 <0>        -0.7638
     20 Cl1        -5.6219   -2.0826   -2.4183 Cl        1 <0>        -0.0342
     21 H2          1.0098    1.9055   -0.0128 H         1 <0>         0.0800
     22 H3         -0.5373    1.8890   -0.8928 H         1 <0>         0.0850
     23 H4         -0.5259    1.8971    0.8871 H         1 <0>         0.0743
     24 H5          1.7785   -0.1979    1.1975 H         1 <0>         0.1499
     25 H6          0.2736   -0.0597    2.1378 H         1 <0>         0.1373
     26 H7          0.8610   -2.6026   -0.7002 H         1 <0>         0.1338
     27 H8          2.3722   -2.0350    0.0815 H         1 <0>         0.1380
     28 H9          0.8417   -4.6504    0.5715 H         1 <0>         0.0964
     29 H10         2.5983   -4.4258    0.2826 H         1 <0>         0.1194
     30 H11         1.4639   -4.5958    2.8309 H         1 <0>         0.1060
     31 H12         2.9915   -3.7310    2.4831 H         1 <0>         0.1066
     32 H13         1.9748   -1.7316    2.9428 H         1 <0>         0.1345
     33 H14         0.4605   -2.5981    3.3266 H         1 <0>         0.1319
     34 H15        -1.8052   -0.7260    0.8539 H         1 <0>         0.3981
     35 H16        -0.5322    0.2464   -2.3740 H         1 <0>         0.1377
     36 H17        -1.7643   -0.0072   -4.4830 H         1 <0>         0.1451
     37 H18        -4.0000   -1.0306   -4.5027 H         1 <0>         0.1465
     38 H19        -3.0126   -3.4832    0.0793 H         1 <0>         0.3994
     39 H20        -4.1250   -3.2724    1.3206 H         1 <0>         0.4256
     40 H21        -0.3241   -2.2514    1.2547 H         1 <0>         0.4195
@<TRIPOS>BOND
     1    1    2 1
     2    1   21 1
     3    1   22 1
     4    1   23 1
     5    2    3 1
     6    2    4 1
     7    2   10 1
     8    4    5 1
     9    4   24 1
    10    4   25 1
    11    5    9 1
    12    5    6 1
    13    5   40 1
    14    6    7 1
    15    6   26 1
    16    6   27 1
    17    7    8 1
    18    7   28 1
    19    7   29 1
    20    8    9 1
    21    8   30 1
    22    8   31 1
    23    9   32 1
    24    9   33 1
    25   10   11 1
    26   10   34 1
    27   11   16 ar
    28   11   12 ar
    29   12   13 ar
    30   12   35 1
    31   13   14 ar
    32   13   36 1
    33   14   15 ar
    34   14   37 1
    35   15   16 ar
    36   15   20 1
    37   16   17 1
    38   17   18 2
    39   17   19 1
    40   19   38 1
    41   19   39 1
@<TRIPOS>MOLECULE
ZINC61360988
   39    42     0     0     0
SMALL
USER_CHARGES

@<TRIPOS>ATOM
      1 C1         -0.0166    1.3745    0.0096 C.ar      1 <0>        -0.1339
      2 C2          1.1671    2.1059    0.0022 C.ar      1 <0>        -0.0848
      3 C3          2.3911    1.4713   -0.0133 C.ar      1 <0>         0.1887
      4 C4          2.4434    0.0653   -0.0213 C.ar      1 <0>        -0.0391
      5 C5          3.6615   -0.6372   -0.0366 C.ar      1 <0>        -0.0628
      6 C6          3.6307   -1.9988   -0.0432 C.ar      1 <0>         0.0275
      7 N1          2.4883   -2.6727   -0.0356 N.ar      1 <0>        -0.4509
      8 C7          1.3156   -2.0824   -0.0213 C.ar      1 <0>         0.2162
      9 C8          1.2375   -0.6823   -0.0134 C.ar      1 <0>        -0.1240
     10 C9          0.0021   -0.0041    0.0020 C.ar      1 <0>         0.2310
     11 N2         -1.1945   -0.7233    0.0100 N.pl3     1 <0>        -0.8544
     12 N3          3.5721    2.2198   -0.0215 N.pl3     1 <0>        -0.7228
     13 C10         3.5117    3.6836   -0.0136 C.3       1 <0>         0.2135
     14 H1          2.6621    4.0109    0.5857 H         1 <0>         0.0949
     15 C11         4.8040    4.2466    0.5789 C.3       1 <0>        -0.1277
     16 C12         4.8311    5.7700    0.4253 C.3       1 <0>        -0.1100
     17 C13         5.0192    6.1121   -1.0606 C.3       1 <0>        -0.0496
     18 C14         4.0611    5.2875   -1.8573 C.2       1 <0>        -0.1298
     19 C15         3.3577    4.1968   -1.4423 C.2       1 <0>        -0.1573
     20 C16         2.5173    3.5993   -2.3814 C.2       1 <0>        -0.1483
     21 C17         2.4304    4.1063   -3.6324 C.2       1 <0>        -0.1746
     22 S1          3.5674    5.4891   -3.5479 S.3       1 <0>         0.0593
     23 H2         -0.9633    1.8940    0.0260 H         1 <0>         0.1494
     24 H3          1.1266    3.1851    0.0084 H         1 <0>         0.1495
     25 H4          4.6027   -0.1076   -0.0434 H         1 <0>         0.1690
     26 H5          4.5624   -2.5449   -0.0553 H         1 <0>         0.1966
     27 H6          0.4124   -2.6744   -0.0160 H         1 <0>         0.2003
     28 H7         -2.0429   -0.2531    0.0210 H         1 <0>         0.4179
     29 H8         -1.1775   -1.6931    0.0047 H         1 <0>         0.4009
     30 H9          4.4314    1.7699   -0.0324 H         1 <0>         0.4034
     31 H10         4.8595    3.9887    1.6365 H         1 <0>         0.0797
     32 H11         5.6588    3.8153    0.0578 H         1 <0>         0.0742
     33 H12         3.8903    6.1901    0.7810 H         1 <0>         0.0743
     34 H13         5.6592    6.1810    1.0028 H         1 <0>         0.0855
     35 H14         4.8156    7.1706   -1.2224 H         1 <0>         0.0894
     36 H15         6.0409    5.8835   -1.3637 H         1 <0>         0.0894
     37 H16         1.9358    2.7307   -2.1097 H         1 <0>         0.1266
     38 H17         1.8342    3.7643   -4.4654 H         1 <0>         0.1857
     39 H18         2.5206   -3.6422   -0.0412 H         1 <0>         0.4471
@<TRIPOS>BOND
     1    1   10 ar
     2    1    2 ar
     3    1   23 1
     4    2    3 ar
     5    2   24 1
     6    3    4 ar
     7    3   12 1
     8    4    9 ar
     9    4    5 ar
    10    5    6 ar
    11    5   25 1
    12    6    7 ar
    13    6   26 1
    14    7    8 ar
    15    7   39 1
    16    8    9 ar
    17    8   27 1
    18    9   10 ar
    19   10   11 1
    20   11   28 1
    21   11   29 1
    22   12   13 1
    23   12   30 1
    24   13   14 1
    25   13   19 1
    26   13   15 1
    27   15   16 1
    28   15   31 1
    29   15   32 1
    30   16   17 1
    31   16   33 1
    32   16   34 1
    33   17   18 1
    34   17   35 1
    35   17   36 1
    36   18   22 1
    37   18   19 2
    38   19   20 1
    39   20   21 2
    40   20   37 1
    41   21   22 1
    42   21   38 1
@<TRIPOS>MOLECULE
ZINC06351054
   41    43     0     0     0
SMALL
USER_CHARGES
5-[(3-bromo-4-hydroxy-phenyl)methylene]-2-(4-ethylphenyl)amino-thiazolidin-4-one
@<TRIPOS>ATOM
      1 C1          3.9879   11.3396   -0.5953 C.3       1 <0>        -0.1474
      2 C2          4.1533    9.9800   -1.2774 C.3       1 <0>        -0.0812
      3 C3          2.8703    9.1986   -1.1577 C.ar      1 <0>        -0.1251
      4 C4          1.8995    9.3124   -2.1359 C.ar      1 <0>        -0.0713
      5 C5          0.7224    8.5980   -2.0291 C.ar      1 <0>        -0.1746
      6 C6          0.5142    7.7644   -0.9376 C.ar      1 <0>         0.2014
      7 C7          1.4893    7.6565    0.0459 C.ar      1 <0>        -0.1824
      8 C8          2.6663    8.3697   -0.0698 C.ar      1 <0>        -0.0688
      9 N1         -0.6753    7.0409   -0.8262 N.pl3     1 <0>        -0.7304
     10 C9         -0.8931    6.1623    0.3257 C.3       1 <0>         0.3926
     11 H1         -0.6418    6.6719    1.2558 H         1 <0>         0.1380
     12 N2         -2.2788    5.6664    0.3549 N.am      1 <0>        -0.7180
     13 C10        -2.4765    4.3641    0.2532 C.2       1 <0>         0.5548
     14 O1         -3.6057    3.9112    0.2662 O.2       1 <0>        -0.5119
     15 C11        -1.3156    3.4650    0.1294 C.2       1 <0>        -0.1756
     16 C12        -1.2983    2.1153    0.0197 C.2       1 <0>         0.0307
     17 C13        -0.0202    1.3907    0.0645 C.ar      1 <0>        -0.0851
     18 C14         0.0669    0.0885   -0.4414 C.ar      1 <0>        -0.0568
     19 C15         1.2654   -0.5882   -0.3925 C.ar      1 <0>        -0.1408
     20 C16         2.3873    0.0191    0.1584 C.ar      1 <0>         0.1525
     21 C17         2.3067    1.3120    0.6628 C.ar      1 <0>        -0.1200
     22 C18         1.1123    1.9982    0.6183 C.ar      1 <0>        -0.0575
     23 Br1         3.8384    2.1308    1.4106 Br        1 <0>        -0.0269
     24 O2          3.5667   -0.6531    0.2045 O.3       1 <0>        -0.4842
     25 S1          0.0630    4.6014    0.1521 S.3       1 <0>        -0.1350
     26 H2          3.1801   11.8914   -1.0762 H         1 <0>         0.0544
     27 H3          3.7497   11.1911    0.4579 H         1 <0>         0.0546
     28 H4          4.9158   11.9048   -0.6819 H         1 <0>         0.0564
     29 H5          4.9610    9.4282   -0.7965 H         1 <0>         0.0696
     30 H6          4.3914   10.1285   -2.3306 H         1 <0>         0.0693
     31 H7          2.0618    9.9609   -2.9841 H         1 <0>         0.1234
     32 H8         -0.0356    8.6876   -2.7933 H         1 <0>         0.1219
     33 H9          1.3288    7.0127    0.8980 H         1 <0>         0.1189
     34 H10         3.4266    8.2831    0.6924 H         1 <0>         0.1233
     35 H11        -1.3572    7.1201   -1.5116 H         1 <0>         0.4059
     36 H12        -3.0259    6.2790    0.4415 H         1 <0>         0.4233
     37 H13        -2.2235    1.5713   -0.1006 H         1 <0>         0.1599
     38 H14        -0.8043   -0.3848   -0.8695 H         1 <0>         0.1435
     39 H15         1.3335   -1.5927   -0.7833 H         1 <0>         0.1455
     40 H16         1.0506    3.0028    1.0097 H         1 <0>         0.1542
     41 H17         3.6930   -1.1708    1.0114 H         1 <0>         0.3988
@<TRIPOS>BOND
     1    1    2 1
     2    1   26 1
     3    1   27 1
     4    1   28 1
     5    2    3 1
     6    2   29 1
     7    2   30 1
     8    3    8 ar
     9    3    4 ar
    10    4    5 ar
    11    4   31 1
    12    5    6 ar
    13    5   32 1
    14    6    7 ar
    15    6    9 1
    16    7    8 ar
    17    7   33 1
    18    8   34 1
    19    9   10 1
    20    9   35 1
    21   10   11 1
    22   10   25 1
    23   10   12 1
    24   12   13 am
    25   12   36 1
    26   13   14 2
    27   13   15 1
    28   15   16 2
    29   15   25 1
    30   16   17 1
    31   16   37 1
    32   17   22 ar
    33   17   18 ar
    34   18   19 ar
    35   18   38 1
    36   19   20 ar
    37   19   39 1
    38   20   21 ar
    39   20   24 1
    40   21   22 ar
    41   21   23 1
    42   22   40 1
    43   24   41 1
@<TRIPOS>MOLECULE
ZINC01302538
   38    40     0     0     0
SMALL
USER_CHARGES
(8S,8aS)-6-amino-8-(2,3-dichlorophenyl)-2,3,8,8a-tetrahydro-1H-isoquinoline-5,7,7-tricarbonitrile
@<TRIPOS>ATOM
      1 C1          0.4088   -0.7254   -3.6366 C.ar      1 <0>        -0.0915
      2 C2         -0.1164   -0.0987   -2.5216 C.ar      1 <0>        -0.1016
      3 C3         -0.1581    1.2813   -2.4590 C.ar      1 <0>        -0.0837
      4 C4          0.3353    2.0366   -3.5079 C.ar      1 <0>        -0.0194
      5 C5          0.8660    1.4091   -4.6221 C.ar      1 <0>        -0.0270
      6 C6          0.9022    0.0276   -4.6853 C.ar      1 <0>        -0.0882
      7 Cl1         1.4851    2.3554   -5.9393 Cl        1 <0>        -0.0374
      8 Cl2         0.2896    3.7701   -3.4267 Cl        1 <0>        -0.0329
      9 C7         -0.7355    1.9634   -1.2456 C.3       1 <0>        -0.0269
     10 H1         -0.8080    3.0409   -1.4548 H         1 <0>         0.1322
     11 C8         -2.1213    1.3887   -0.9458 C.3       1 <0>        -0.0755
     12 H2         -2.0601    0.3273   -0.6635 H         1 <0>         0.0956
     13 C9         -3.0106    1.3954   -2.1691 C.3       1 <0>         0.0506
     14 N1         -3.9342    2.5332   -2.1697 N.3       1 <0>        -0.6580
     15 C10        -4.8031    2.4837   -0.9805 C.3       1 <0>         0.0718
     16 C11        -3.9224    2.6206    0.2366 C.2       1 <0>        -0.1734
     17 C12        -2.6944    2.1365    0.2238 C.2       1 <0>        -0.0527
     18 C13        -1.7970    2.3717    1.3826 C.2       1 <0>        -0.1437
     19 C14        -0.4623    2.1828    1.2354 C.2       1 <0>         0.2574
     20 C15         0.1738    1.7205   -0.0408 C.3       1 <0>         0.2129
     21 C16         0.4615    0.2805    0.0607 C.1       1 <0>         0.2012
     22 N2          0.6836   -0.8309    0.1390 N.1       1 <0>        -0.3515
     23 C17         1.4373    2.4492   -0.2385 C.1       1 <0>         0.1862
     24 N3          2.4125    3.0116   -0.3912 N.1       1 <0>        -0.3400
     25 N4          0.3459    2.4271    2.3099 N.pl3     1 <0>        -0.8611
     26 C18        -2.3349    2.7928    2.6411 C.1       1 <0>         0.2652
     27 N5         -2.7617    3.1268    3.6395 N.1       1 <0>        -0.4272
     28 H3          0.4373   -1.8038   -3.6864 H         1 <0>         0.1450
     29 H4         -0.4976   -0.6879   -1.7008 H         1 <0>         0.1402
     30 H5          1.3164   -0.4625   -5.5540 H         1 <0>         0.1481
     31 H6         -2.3886    1.4573   -3.0742 H         1 <0>         0.0890
     32 H7         -3.6051    0.4703   -2.1953 H         1 <0>         0.0857
     33 H8         -3.3601    3.4714   -2.1574 H         1 <0>         0.3451
     34 H9         -5.5291    3.3090   -1.0223 H         1 <0>         0.0935
     35 H10        -5.3400    1.5239   -0.9583 H         1 <0>         0.0895
     36 H11        -4.3054    3.1250    1.1360 H         1 <0>         0.1182
     37 H12         1.4331    2.2838    2.2242 H         1 <0>         0.4265
     38 H13        -0.0908    2.7671    3.2605 H         1 <0>         0.4378
@<TRIPOS>BOND
     1    1    6 ar
     2    1    2 ar
     3    1   28 1
     4    2    3 ar
     5    2   29 1
     6    3    4 ar
     7    3    9 1
     8    4    5 ar
     9    4    8 1
    10    5    6 ar
    11    5    7 1
    12    6   30 1
    13    9   10 1
    14    9   20 1
    15    9   11 1
    16   11   12 1
    17   11   17 1
    18   11   13 1
    19   13   14 1
    20   13   31 1
    21   13   32 1
    22   14   15 1
    23   14   33 1
    24   15   16 1
    25   15   34 1
    26   15   35 1
    27   16   17 2
    28   16   36 1
    29   17   18 1
    30   18   19 2
    31   18   26 1
    32   19   20 1
    33   19   25 1
    34   20   21 1
    35   20   23 1
    36   21   22 3
    37   23   24 3
    38   25   37 1
    39   25   38 1
    40   26   27 3
@<TRIPOS>MOLECULE
ZINC43509588
   60    64     0     0     0
SMALL
USER_CHARGES

@<TRIPOS>ATOM
      1 C1          1.5477    0.8238   -0.9327 C.3       1 <0>        -0.1492
      2 C2          0.9193   -0.5206   -0.5820 C.3       1 <0>        -0.0876
      3 H1          1.0101   -1.1952   -1.4328 H         1 <0>         0.0864
      4 C3         -0.5581   -0.3457   -0.2282 C.3       1 <0>        -0.1190
      5 C4         -1.1715   -1.7250    0.0140 C.3       1 <0>        -0.1233
      6 C5         -0.4547   -2.5023    1.1222 C.3       1 <0>        -0.0497
      7 H2         -0.6384   -1.9744    2.0719 H         1 <0>         0.0739
      8 C6          1.0487   -2.5468    0.8822 C.3       1 <0>        -0.0475
      9 C7          1.6030   -1.1390    0.6336 C.3       1 <0>         0.1302
     10 C8          1.4012   -0.2547    1.8750 C.3       1 <0>        -0.0930
     11 C9          2.7928   -0.1953    2.4771 C.ar      1 <0>        -0.1869
     12 C10         3.2515    0.2441    3.7060 C.ar      1 <0>         0.1601
     13 C11         4.6082    0.1830    4.0009 C.ar      1 <0>        -0.1293
     14 C12         5.4887   -0.3268    3.0683 C.ar      1 <0>        -0.0725
     15 C13         5.0249   -0.7767    1.8460 C.ar      1 <0>        -0.1634
     16 C14         3.6684   -0.7283    1.5432 C.ar      1 <0>         0.1610
     17 O1          3.0155   -1.1698    0.4351 O.3       1 <0>        -0.2799
     18 C15         6.2189   -1.2598    1.0559 C.3       1 <0>         0.1072
     19 O2          7.2676   -1.4644    2.0196 O.3       1 <0>        -0.3801
     20 C16         6.9861   -0.5323    3.0805 C.3       1 <0>         0.3006
     21 H3          7.5007    0.4099    2.8972 H         1 <0>         0.0903
     22 O3          7.3933   -1.0816    4.3358 O.3       1 <0>        -0.5438
     23 O4          2.3767    0.7309    4.6249 O.3       1 <0>        -0.4910
     24 C17         1.3701   -3.4240   -0.3305 C.3       1 <0>        -0.1051
     25 C18         0.8375   -4.8379   -0.1050 C.3       1 <0>        -0.1515
     26 C19        -0.6771   -4.7918    0.0676 C.3       1 <0>         0.1187
     27 H4         -1.1304   -4.4253   -0.8590 H         1 <0>         0.0517
     28 C20        -1.0895   -3.8871    1.2250 C.3       1 <0>        -0.0426
     29 C21        -2.6279   -3.7467    1.1669 C.3       1 <0>        -0.1485
     30 C22        -0.7877   -4.5697    2.5611 C.3       1 <0>        -0.1420
     31 O5         -1.1630   -6.1171    0.3165 O.3       1 <0>        -0.5654
     32 C23         1.8037   -3.1069    2.0965 C.3       1 <0>        -0.1557
     33 H5          2.6012    0.6808   -1.1732 H         1 <0>         0.0619
     34 H6          1.0334    1.2519   -1.7932 H         1 <0>         0.0610
     35 H7          1.4577    1.4998   -0.0824 H         1 <0>         0.0551
     36 H8         -0.6566    0.2631    0.6698 H         1 <0>         0.0692
     37 H9         -1.0754    0.1428   -1.0547 H         1 <0>         0.0738
     38 H10        -2.2155   -1.5419    0.2910 H         1 <0>         0.0718
     39 H11        -1.1411   -2.3006   -0.9099 H         1 <0>         0.0662
     40 H12         1.0519    0.7454    1.6202 H         1 <0>         0.0972
     41 H13         0.6965   -0.7079    2.5778 H         1 <0>         0.0939
     42 H14         4.9714    0.5361    4.9546 H         1 <0>         0.1404
     43 H15         5.9787   -2.1956    0.5512 H         1 <0>         0.1004
     44 H16         6.5155   -0.5058    0.3268 H         1 <0>         0.0834
     45 H17         8.3450   -1.2372    4.4069 H         1 <0>         0.3915
     46 H18         2.0179    0.0592    5.2208 H         1 <0>         0.3946
     47 H19         0.9057   -3.0044   -1.2228 H         1 <0>         0.0683
     48 H20         2.4514   -3.4615   -0.4715 H         1 <0>         0.0719
     49 H21         1.0722   -5.4435   -0.9914 H         1 <0>         0.0615
     50 H22         1.3079   -5.3046    0.7532 H         1 <0>         0.0759
     51 H23        -2.9150   -3.2818    0.2237 H         1 <0>         0.0558
     52 H24        -3.0858   -4.7332    1.2400 H         1 <0>         0.0634
     53 H25        -2.9677   -3.1261    1.9961 H         1 <0>         0.0537
     54 H26        -1.0202   -3.8872    3.3785 H         1 <0>         0.0498
     55 H27        -1.3958   -5.4695    2.6549 H         1 <0>         0.0651
     56 H28         0.2678   -4.8388    2.6014 H         1 <0>         0.0607
     57 H29        -0.9729   -6.7454   -0.3935 H         1 <0>         0.3756
     58 H30         1.6096   -4.1759    2.1836 H         1 <0>         0.0725
     59 H31         2.8733   -2.9412    1.9674 H         1 <0>         0.0582
     60 H32         1.4642   -2.6011    3.0004 H         1 <0>         0.0541
@<TRIPOS>BOND
     1    1    2 1
     2    1   33 1
     3    1   34 1
     4    1   35 1
     5    2    3 1
     6    2    9 1
     7    2    4 1
     8    4    5 1
     9    4   36 1
    10    4   37 1
    11    5    6 1
    12    5   38 1
    13    5   39 1
    14    6    7 1
    15    6   28 1
    16    6    8 1
    17    8    9 1
    18    8   24 1
    19    8   32 1
    20    9   17 1
    21    9   10 1
    22   10   11 1
    23   10   40 1
    24   10   41 1
    25   11   16 ar
    26   11   12 ar
    27   12   13 ar
    28   12   23 1
    29   13   14 ar
    30   13   42 1
    31   14   20 1
    32   14   15 ar
    33   15   16 ar
    34   15   18 1
    35   16   17 1
    36   18   19 1
    37   18   43 1
    38   18   44 1
    39   19   20 1
    40   20   21 1
    41   20   22 1
    42   22   45 1
    43   23   46 1
    44   24   25 1
    45   24   47 1
    46   24   48 1
    47   25   26 1
    48   25   49 1
    49   25   50 1
    50   26   27 1
    51   26   28 1
    52   26   31 1
    53   28   29 1
    54   28   30 1
    55   29   51 1
    56   29   52 1
    57   29   53 1
    58   30   54 1
    59   30   55 1
    60   30   56 1
    61   31   57 1
    62   32   58 1
    63   32   59 1
    64   32   60 1
@<TRIPOS>MOLECULE
ZINC00714893
   35    37     0     0     0
SMALL
USER_CHARGES

@<TRIPOS>ATOM
      1 C1         -0.0167    1.3780    0.0096 C.ar      1 <0>        -0.0835
      2 C2          1.1706    2.0863    0.0021 C.ar      1 <0>        -0.0941
      3 C3          2.3780    1.4119   -0.0130 C.ar      1 <0>        -0.0238
      4 C4          2.3968    0.0272   -0.0206 C.ar      1 <0>        -0.0299
      5 C5          1.2081   -0.6797   -0.0130 C.ar      1 <0>        -0.0845
      6 C6          0.0021   -0.0041    0.0020 C.ar      1 <0>        -0.0883
      7 C7         -1.2929   -0.7748    0.0107 C.3       1 <0>         0.2034
      8 H1         -2.1043   -0.1311   -0.3290 H         1 <0>         0.0962
      9 C8         -1.5882   -1.2692    1.4311 C.3       1 <0>        -0.1534
     10 C9         -2.9380   -1.9950    1.4612 C.3       1 <0>         0.1301
     11 H2         -3.7434   -1.2742    1.3204 H         1 <0>         0.1364
     12 N1         -2.9692   -2.9834    0.3794 N.pl3     1 <0>        -0.3957
     13 C10        -2.1387   -2.9470   -0.7047 C.2       1 <0>         0.3645
     14 C11        -2.4331   -3.9984   -1.4945 C.2       1 <0>        -0.2613
     15 C12        -3.4861   -4.7128   -0.8793 C.2       1 <0>         0.0648
     16 N2         -3.8009   -4.0944    0.2453 N.2       1 <0>        -0.2508
     17 C13        -4.1241   -5.9380   -1.4027 C.2       1 <0>         0.6068
     18 O1         -3.7474   -6.4178   -2.4543 O.2       1 <0>        -0.5248
     19 N3         -5.1238   -6.5240   -0.7144 N.am      1 <0>        -0.8384
     20 N4         -1.1800   -1.9440   -0.8835 N.pl3     1 <0>        -0.7269
     21 C14        -3.1108   -2.7000    2.8080 C.3       1 <0>         0.4559
     22 F1         -3.0680   -1.7545    3.8382 F         1 <0>        -0.1716
     23 F2         -4.3431   -3.3618    2.8333 F         1 <0>        -0.1600
     24 F3         -2.0792   -3.6285    2.9841 F         1 <0>        -0.1718
     25 Cl1         3.9115   -0.8207   -0.0401 Cl        1 <0>        -0.0376
     26 Cl2         3.8691    2.3008   -0.0231 Cl        1 <0>        -0.0385
     27 H3         -0.9593    1.9049    0.0259 H         1 <0>         0.1453
     28 H4          1.1552    3.1661    0.0076 H         1 <0>         0.1494
     29 H5          1.2220   -1.7596   -0.0193 H         1 <0>         0.1459
     30 H6         -0.8015   -1.9544    1.7468 H         1 <0>         0.1021
     31 H7         -1.6196   -0.4181    2.1114 H         1 <0>         0.1240
     32 H8         -1.9521   -4.2494   -2.4283 H         1 <0>         0.1641
     33 H9         -5.4244   -6.1412    0.1246 H         1 <0>         0.4092
     34 H10        -5.5427   -7.3285   -1.0581 H         1 <0>         0.4093
     35 H11        -0.4809   -2.0134   -1.5523 H         1 <0>         0.4274
@<TRIPOS>BOND
     1    1    6 ar
     2    1    2 ar
     3    1   27 1
     4    2    3 ar
     5    2   28 1
     6    3    4 ar
     7    3   26 1
     8    4    5 ar
     9    4   25 1
    10    5    6 ar
    11    5   29 1
    12    6    7 1
    13    7    8 1
    14    7   20 1
    15    7    9 1
    16    9   10 1
    17    9   30 1
    18    9   31 1
    19   10   11 1
    20   10   12 1
    21   10   21 1
    22   12   16 1
    23   12   13 1
    24   13   14 2
    25   13   20 1
    26   14   15 1
    27   14   32 1
    28   15   16 2
    29   15   17 1
    30   17   18 2
    31   17   19 am
    32   19   33 1
    33   19   34 1
    34   20   35 1
    35   21   22 1
    36   21   23 1
    37   21   24 1
@<TRIPOS>MOLECULE
ZINC61882420
   41    42     0     0     0
SMALL
USER_CHARGES

@<TRIPOS>ATOM
      1 C1         -0.1621    0.7794   -0.1191 C.3       1 <0>        -0.1567
      2 C2         -0.0709   -0.7312    0.1061 C.3       1 <0>        -0.0846
      3 H1         -1.0741   -1.1439    0.2125 H         1 <0>         0.0731
      4 C3          0.6248   -1.3840   -1.0901 C.3       1 <0>        -0.1139
      5 C4          0.7160   -2.8946   -0.8650 C.3       1 <0>        -0.1213
      6 C5          1.5197   -3.1731    0.4068 C.3       1 <0>        -0.1205
      7 C6          0.8240   -2.5203    1.6030 C.3       1 <0>        -0.1162
      8 C7          0.7328   -1.0097    1.3778 C.3       1 <0>        -0.0875
      9 H2          1.7360   -0.5970    1.2714 H         1 <0>         0.0831
     10 C8          0.0371   -0.3569    2.5740 C.3       1 <0>         0.1149
     11 N1          0.8663   -0.5211    3.7705 N.pl3     1 <0>        -1.1074
     12 S1          0.5632    0.3905    5.1194 S.o2      1 <0>         2.6872
     13 O1          1.5005   -0.0195    6.1056 O.2       1 <0>        -0.9345
     14 O2          0.4570    1.7386    4.6831 O.2       1 <0>        -0.9458
     15 C9         -1.0291   -0.0732    5.7145 C.ar      1 <0>        -0.5940
     16 C10        -2.0588    0.8500    5.7234 C.ar      1 <0>        -0.0665
     17 C11        -3.3109    0.4898    6.1895 C.ar      1 <0>         0.0085
     18 C12        -3.5361   -0.7951    6.6480 C.ar      1 <0>        -0.1331
     19 C13        -2.5043   -1.7239    6.6402 C.ar      1 <0>         0.2452
     20 C14        -1.2490   -1.3601    6.1663 C.ar      1 <0>        -0.0881
     21 Br1         0.1578   -2.6235    6.1463 Br        1 <0>        -0.0145
     22 N2         -2.7283   -3.0231    7.1032 N.pl3     1 <0>        -0.8611
     23 Cl1        -4.6001    1.6524    6.1992 Cl        1 <0>        -0.0434
     24 H3          0.8411    1.1921   -0.2255 H         1 <0>         0.0578
     25 H4         -0.7346    0.9778   -1.0251 H         1 <0>         0.0571
     26 H5         -0.6577    1.2444    0.7331 H         1 <0>         0.0600
     27 H6          0.0523   -1.1856   -1.9961 H         1 <0>         0.0636
     28 H7          1.6280   -0.9713   -1.1966 H         1 <0>         0.0633
     29 H8         -0.2872   -3.3073   -0.7585 H         1 <0>         0.0612
     30 H9          1.2117   -3.3597   -1.7171 H         1 <0>         0.0613
     31 H10         1.5847   -4.2493    0.5672 H         1 <0>         0.0616
     32 H11         2.5229   -2.7604    0.3003 H         1 <0>         0.0625
     33 H12        -0.1792   -2.9330    1.7094 H         1 <0>         0.0653
     34 H13         1.3966   -2.7187    2.5090 H         1 <0>         0.0632
     35 H14        -0.1076    0.7050    2.3751 H         1 <0>         0.0872
     36 H15        -0.9309   -0.8316    2.7348 H         1 <0>         0.0659
     37 H16         1.5929   -1.1637    3.7726 H         1 <0>         0.4209
     38 H17        -1.8852    1.8543    5.3662 H         1 <0>         0.1605
     39 H18        -4.5134   -1.0757    7.0120 H         1 <0>         0.1501
     40 H19        -3.6054   -3.2768    7.4305 H         1 <0>         0.4083
     41 H20        -2.0067   -3.6712    7.0973 H         1 <0>         0.4076
@<TRIPOS>BOND
     1    1    2 1
     2    1   24 1
     3    1   25 1
     4    1   26 1
     5    2    3 1
     6    2    8 1
     7    2    4 1
     8    4    5 1
     9    4   27 1
    10    4   28 1
    11    5    6 1
    12    5   29 1
    13    5   30 1
    14    6    7 1
    15    6   31 1
    16    6   32 1
    17    7    8 1
    18    7   33 1
    19    7   34 1
    20    8    9 1
    21    8   10 1
    22   10   11 1
    23   10   35 1
    24   10   36 1
    25   11   12 1
    26   11   37 1
    27   12   13 2
    28   12   14 2
    29   12   15 1
    30   15   20 ar
    31   15   16 ar
    32   16   17 ar
    33   16   38 1
    34   17   18 ar
    35   17   23 1
    36   18   19 ar
    37   18   39 1
    38   19   20 ar
    39   19   22 1
    40   20   21 1
    41   22   40 1
    42   22   41 1
@<TRIPOS>MOLECULE
ZINC04592597
   49    52     0     0     0
SMALL
USER_CHARGES
3-amino-5-(4-fluorophenyl)-10-[(4-fluorophenyl)methylene]-8-methyl-2-oxa-8-azabicyclo[4.4.0]deca-3,11-diene-4-carbonitrile
@<TRIPOS>ATOM
      1 C1         -6.6678    3.2076   -2.7854 C.3       1 <0>        -0.0427
      2 C2         -5.8791    1.3627   -1.4222 C.3       1 <0>         0.0503
      3 C3         -4.5961    0.6911   -0.9795 C.2       1 <0>        -0.1833
      4 C4         -4.4535   -0.6451   -1.0345 C.2       1 <0>         0.0337
      5 C5         -5.6078   -1.4957   -1.3719 C.ar      1 <0>        -0.1210
      6 C6         -6.8962   -1.1166   -0.9840 C.ar      1 <0>        -0.0823
      7 C7         -7.9730   -1.9141   -1.3078 C.ar      1 <0>        -0.1547
      8 C8         -7.7789   -3.0957   -2.0062 C.ar      1 <0>         0.1341
      9 C9         -6.5032   -3.4798   -2.3892 C.ar      1 <0>        -0.1505
     10 C10        -5.4188   -2.6882   -2.0764 C.ar      1 <0>        -0.0500
     11 F1         -8.8375   -3.8761   -2.3154 F         1 <0>        -0.1245
     12 C11        -3.5068    1.5580   -0.4843 C.2       1 <0>         0.1597
     13 C12        -3.5931    2.8800   -0.6390 C.2       1 <0>        -0.2125
     14 C13        -4.7924    3.5179   -1.2925 C.3       1 <0>         0.0586
     15 C14        -2.4797    3.7788   -0.1571 C.3       1 <0>         0.0972
     16 H1         -2.2934    4.5528   -0.9017 H         1 <0>         0.1047
     17 C15        -1.2232    2.9864    0.0659 C.2       1 <0>        -0.2666
     18 C16        -1.2676    1.6357    0.1830 C.2       1 <0>         0.4350
     19 O1         -2.4368    0.9762    0.1105 O.3       1 <0>        -0.2382
     20 N1         -0.1049    0.9342    0.3837 N.pl3     1 <0>        -0.8222
     21 C17         0.0357    3.6637    0.1508 C.1       1 <0>         0.2579
     22 N2          1.0343    4.2011    0.2181 N.1       1 <0>        -0.4186
     23 C18        -2.8878    4.4250    1.1418 C.ar      1 <0>        -0.1062
     24 C19        -3.1915    3.6398    2.2383 C.ar      1 <0>        -0.0739
     25 C20        -3.5604    4.2314    3.4316 C.ar      1 <0>        -0.1509
     26 C21        -3.6371    5.6107    3.5252 C.ar      1 <0>         0.1089
     27 C22        -3.3381    6.3959    2.4246 C.ar      1 <0>        -0.1491
     28 C23        -2.9636    5.8023    1.2342 C.ar      1 <0>        -0.0810
     29 F2         -4.0038    6.1899    4.6893 F         1 <0>        -0.1334
     30 H2         -7.4131    3.4204   -2.0190 H         1 <0>         0.1268
     31 H3         -6.3673    4.1376   -3.2682 H         1 <0>         0.1282
     32 H4         -7.0932    2.5333   -3.5287 H         1 <0>         0.1262
     33 H5         -6.4451    0.6931   -2.0699 H         1 <0>         0.1512
     34 H6         -6.4776    1.6319   -0.5519 H         1 <0>         0.1464
     35 H7         -3.4927   -1.0944   -0.8313 H         1 <0>         0.1524
     36 H8         -7.0481   -0.1988   -0.4353 H         1 <0>         0.1378
     37 H9         -8.9694   -1.6202   -1.0126 H         1 <0>         0.1476
     38 H10        -6.3585   -4.4014   -2.9334 H         1 <0>         0.1490
     39 H11        -4.4254   -2.9885   -2.3753 H         1 <0>         0.1450
     40 H12        -4.4631    4.3730   -1.8828 H         1 <0>         0.1450
     41 H13        -5.4769    3.8631   -0.5177 H         1 <0>         0.1453
     42 H14        -0.1302   -0.0314    0.4722 H         1 <0>         0.4153
     43 H15         0.7425    1.4037    0.4329 H         1 <0>         0.4317
     44 H16        -3.1366    2.5638    2.1636 H         1 <0>         0.1246
     45 H17        -3.7930    3.6180    4.2895 H         1 <0>         0.1381
     46 H18        -3.3972    7.4719    2.4966 H         1 <0>         0.1404
     47 H19        -2.7303    6.4145    0.3756 H         1 <0>         0.1345
     48 N3         -5.4765    2.5667   -2.1833 N.4       1 <0>        -0.3988
     49 H20        -4.8324    2.2881   -2.9327 H         1 <0>         0.4349
@<TRIPOS>BOND
     1    1   30 1
     2    1   31 1
     3    1   32 1
     4    1   48 1
     5    2    3 1
     6    2   33 1
     7    2   34 1
     8    2   48 1
     9    3    4 2
    10    3   12 1
    11    4    5 1
    12    4   35 1
    13    5   10 ar
    14    5    6 ar
    15    6    7 ar
    16    6   36 1
    17    7    8 ar
    18    7   37 1
    19    8    9 ar
    20    8   11 1
    21    9   10 ar
    22    9   38 1
    23   10   39 1
    24   12   19 1
    25   12   13 2
    26   13   14 1
    27   13   15 1
    28   14   40 1
    29   14   41 1
    30   14   48 1
    31   15   16 1
    32   15   17 1
    33   15   23 1
    34   17   18 2
    35   17   21 1
    36   18   19 1
    37   18   20 1
    38   20   42 1
    39   20   43 1
    40   21   22 3
    41   23   28 ar
    42   23   24 ar
    43   24   25 ar
    44   24   44 1
    45   25   26 ar
    46   25   45 1
    47   26   27 ar
    48   26   29 1
    49   27   28 ar
    50   27   46 1
    51   28   47 1
    52   48   49 1
@<TRIPOS>MOLECULE
ZINC12329497
   63    67     0     0     0
SMALL
USER_CHARGES
(4R)-1'-[(2S)-2-(3,4-dimethylphenyl)-2-hydroxy-ethyl]spiro[3,4-dihydrobenzo[h]chromene-2,4'-piperidine]-4-ol
@<TRIPOS>ATOM
      1 C1          4.6792   -0.1039   -4.1004 C.3       1 <0>        -0.1295
      2 C2          3.8407    0.3513   -2.9339 C.ar      1 <0>        -0.0632
      3 C3          3.2679   -0.5809   -2.0888 C.ar      1 <0>        -0.1094
      4 C4          2.4984   -0.1634   -1.0192 C.ar      1 <0>        -0.1095
      5 C5          2.3023    1.1865   -0.7940 C.ar      1 <0>        -0.1448
      6 C6          2.8710    2.1184   -1.6417 C.ar      1 <0>        -0.0979
      7 C7          3.6438    1.7008   -2.7093 C.ar      1 <0>        -0.0771
      8 C8          4.2677    2.7169   -3.6308 C.3       1 <0>        -0.1263
      9 C9          1.4634    1.6417    0.3722 C.3       1 <0>         0.1366
     10 H1          1.7000    2.6796    0.6068 H         1 <0>         0.1284
     11 C10        -0.0187    1.5258    0.0104 C.3       1 <0>        -0.0379
     12 C11        -2.2058    1.4605    1.0459 C.3       1 <0>         0.0031
     13 C12        -2.9845    1.8309    2.3107 C.3       1 <0>        -0.1744
     14 C13        -3.0027    3.3523    2.4657 C.3       1 <0>         0.1160
     15 C14        -1.5661    3.8763    2.5121 C.3       1 <0>        -0.1296
     16 C15        -0.8299    3.4464    1.2409 C.3       1 <0>        -0.0026
     17 C16        -3.7264    3.7288    3.7630 C.3       1 <0>        -0.1428
     18 C17        -5.1312    3.1236    3.7233 C.3       1 <0>         0.1538
     19 H2         -5.0640    2.0435    3.8536 H         1 <0>         0.0696
     20 C18        -5.7836    3.4291    2.3971 C.ar      1 <0>        -0.2018
     21 C19        -7.1743    3.3221    2.3059 C.ar      1 <0>        -0.0846
     22 C20        -7.8320    3.5745    1.1436 C.ar      1 <0>        -0.1186
     23 C21        -7.1047    3.9485    0.0007 C.ar      1 <0>        -0.0230
     24 C22        -7.7465    4.2082   -1.2223 C.ar      1 <0>        -0.1068
     25 C23        -7.0064    4.5678   -2.3067 C.ar      1 <0>        -0.1016
     26 C24        -5.6201    4.6818   -2.2230 C.ar      1 <0>        -0.1154
     27 C25        -4.9659    4.4376   -1.0542 C.ar      1 <0>        -0.0976
     28 C26        -5.6969    4.0641    0.0853 C.ar      1 <0>        -0.0652
     29 C27        -5.0461    3.8022    1.3132 C.ar      1 <0>         0.1480
     30 O1         -3.6975    3.9435    1.3698 O.3       1 <0>        -0.3027
     31 O2         -5.9178    3.6797    4.7787 O.3       1 <0>        -0.5502
     32 O3          1.7420    0.8211    1.5085 O.3       1 <0>        -0.5481
     33 H3          4.0429   -0.2368   -4.9754 H         1 <0>         0.0787
     34 H4          5.4404    0.6461   -4.3153 H         1 <0>         0.0771
     35 H5          5.1608   -1.0503   -3.8543 H         1 <0>         0.0725
     36 H6          3.4214   -1.6354   -2.2645 H         1 <0>         0.1306
     37 H7          2.0507   -0.8916   -0.3592 H         1 <0>         0.1205
     38 H8          2.7141    3.1727   -1.4683 H         1 <0>         0.1262
     39 H9          3.5796    2.9384   -4.4466 H         1 <0>         0.0768
     40 H10         4.4784    3.6306   -3.0750 H         1 <0>         0.0701
     41 H11         5.1965    2.3168   -4.0375 H         1 <0>         0.0773
     42 H12        -0.2292    2.1446   -0.8618 H         1 <0>         0.1437
     43 H13        -0.2573    0.4864   -0.2153 H         1 <0>         0.1341
     44 H14        -2.6986    1.8945    0.1759 H         1 <0>         0.1345
     45 H15        -2.1756    0.3758    0.9426 H         1 <0>         0.1317
     46 H16        -2.5022    1.3824    3.1793 H         1 <0>         0.1086
     47 H17        -4.0067    1.4610    2.2307 H         1 <0>         0.1189
     48 H18        -1.0569    3.4656    3.3840 H         1 <0>         0.1128
     49 H19        -1.5769    4.9643    2.5760 H         1 <0>         0.1266
     50 H20         0.1992    3.8035    1.2787 H         1 <0>         0.1331
     51 H21        -1.3300    3.8709    0.3703 H         1 <0>         0.1381
     52 H22        -3.1792    3.3311    4.6177 H         1 <0>         0.0987
     53 H23        -3.7960    4.8136    3.8433 H         1 <0>         0.0993
     54 H24        -7.7394    3.0317    3.1793 H         1 <0>         0.1263
     55 H25        -8.9076    3.4878    1.0985 H         1 <0>         0.1361
     56 H26        -8.8203    4.1230   -1.3013 H         1 <0>         0.1355
     57 H27        -7.5009    4.7669   -3.2460 H         1 <0>         0.1302
     58 H28        -5.0562    4.9686   -3.0983 H         1 <0>         0.1272
     59 H29        -3.8911    4.5308   -1.0036 H         1 <0>         0.1260
     60 H30        -6.8229    3.3412    4.8150 H         1 <0>         0.3866
     61 H31         1.5544   -0.1175    1.3712 H         1 <0>         0.3882
     62 N1         -0.8230    1.9697    1.1674 N.4       1 <0>        -0.3915
     63 H32        -0.4048    1.5956    2.0273 H         1 <0>         0.4303
@<TRIPOS>BOND
     1    1    2 1
     2    1   33 1
     3    1   34 1
     4    1   35 1
     5    2    7 ar
     6    2    3 ar
     7    3    4 ar
     8    3   36 1
     9    4    5 ar
    10    4   37 1
    11    5    6 ar
    12    5    9 1
    13    6    7 ar
    14    6   38 1
    15    7    8 1
    16    8   39 1
    17    8   40 1
    18    8   41 1
    19    9   10 1
    20    9   11 1
    21    9   32 1
    22   11   42 1
    23   11   43 1
    24   11   62 1
    25   12   13 1
    26   12   44 1
    27   12   45 1
    28   12   62 1
    29   13   14 1
    30   13   46 1
    31   13   47 1
    32   14   30 1
    33   14   15 1
    34   14   17 1
    35   15   16 1
    36   15   48 1
    37   15   49 1
    38   16   50 1
    39   16   51 1
    40   16   62 1
    41   17   18 1
    42   17   52 1
    43   17   53 1
    44   18   19 1
    45   18   20 1
    46   18   31 1
    47   20   29 ar
    48   20   21 ar
    49   21   22 ar
    50   21   54 1
    51   22   23 ar
    52   22   55 1
    53   23   28 ar
    54   23   24 ar
    55   24   25 ar
    56   24   56 1
    57   25   26 ar
    58   25   57 1
    59   26   27 ar
    60   26   58 1
    61   27   28 ar
    62   27   59 1
    63   28   29 ar
    64   29   30 1
    65   31   60 1
    66   32   61 1
    67   62   63 1
@<TRIPOS>MOLECULE
ZINC37332436
   37    39     0     0     0
SMALL
USER_CHARGES

@<TRIPOS>ATOM
      1 C1         -0.0167    1.3782    0.0096 C.ar      1 <0>        -0.0749
      2 C2          1.1708    2.0857    0.0021 C.ar      1 <0>        -0.0719
      3 C3          2.3776    1.4106   -0.0131 C.ar      1 <0>        -0.0769
      4 C4          2.3961    0.0278   -0.0207 C.ar      1 <0>        -0.0729
      5 C5          1.2083   -0.6792   -0.0132 C.ar      1 <0>        -0.1104
      6 C6          0.0021   -0.0041    0.0020 C.ar      1 <0>        -0.1303
      7 C7         -1.2927   -0.7751    0.0108 C.3       1 <0>         0.1336
      8 H1         -2.0954   -0.1332    0.3737 H         1 <0>         0.1650
      9 C8         -1.6120   -1.2366   -1.3879 C.ar      1 <0>        -0.1034
     10 C9         -1.3403   -2.5407   -1.7628 C.ar      1 <0>        -0.1254
     11 C10        -1.6354   -2.9609   -3.0482 C.ar      1 <0>         0.1050
     12 C11        -2.2010   -2.0769   -3.9566 C.ar      1 <0>         0.1025
     13 C12        -2.4714   -0.7729   -3.5793 C.ar      1 <0>        -0.0725
     14 C13        -2.1808   -0.3572   -2.2909 C.ar      1 <0>        -0.0598
     15 Br1        -2.5560    1.4206   -1.7669 Br        1 <0>        -0.0072
     16 O1         -2.4889   -2.5020   -5.2210 O.3       1 <0>        -0.3105
     17 C14        -1.3645   -2.8002   -6.0511 C.3       1 <0>         0.0584
     18 C15        -0.8743   -4.2186   -5.8062 C.3       1 <0>        -0.1939
     19 C16        -0.3348   -4.4095   -4.3973 C.3       1 <0>         0.0599
     20 O2         -1.3738   -4.2448   -3.4301 O.3       1 <0>        -0.3142
     21 N1         -1.1618   -1.9420    0.8935 N.4       1 <0>        -0.6341
     22 I1          4.1776    2.4824   -0.0252 I         1 <0>        -0.0059
     23 H2         -0.9592    1.9053    0.0260 H         1 <0>         0.1451
     24 H3          1.1560    3.1655    0.0077 H         1 <0>         0.1451
     25 H4          3.3384   -0.4997   -0.0329 H         1 <0>         0.1433
     26 H5          1.2227   -1.7591   -0.0191 H         1 <0>         0.1279
     27 H6         -0.9002   -3.2278   -1.0553 H         1 <0>         0.1388
     28 H7         -2.9110   -0.0841   -4.2854 H         1 <0>         0.1611
     29 H8         -1.6531   -2.6960   -7.0970 H         1 <0>         0.1188
     30 H9         -0.5596   -2.0992   -5.8302 H         1 <0>         0.0633
     31 H10        -1.7017   -4.9104   -5.9641 H         1 <0>         0.0924
     32 H11        -0.0838   -4.4474   -6.5210 H         1 <0>         0.1034
     33 H12         0.0846   -5.4115   -4.3064 H         1 <0>         0.1174
     34 H13         0.4488   -3.6751   -4.2107 H         1 <0>         0.0625
     35 H14        -0.4188   -2.5362    0.5575 H         1 <0>         0.4313
     36 H15        -0.9480   -1.6330    1.8299 H         1 <0>         0.4454
     37 H16        -2.0287   -2.4582    0.8994 H         1 <0>         0.4441
@<TRIPOS>BOND
     1    1    6 ar
     2    1    2 ar
     3    1   23 1
     4    2    3 ar
     5    2   24 1
     6    3    4 ar
     7    3   22 1
     8    4    5 ar
     9    4   25 1
    10    5    6 ar
    11    5   26 1
    12    6    7 1
    13    7    8 1
    14    7    9 1
    15    7   21 1
    16    9   14 ar
    17    9   10 ar
    18   10   11 ar
    19   10   27 1
    20   11   20 1
    21   11   12 ar
    22   12   13 ar
    23   12   16 1
    24   13   14 ar
    25   13   28 1
    26   14   15 1
    27   16   17 1
    28   17   18 1
    29   17   29 1
    30   17   30 1
    31   18   19 1
    32   18   31 1
    33   18   32 1
    34   19   20 1
    35   19   33 1
    36   19   34 1
    37   21   35 1
    38   21   36 1
    39   21   37 1
@<TRIPOS>MOLECULE
ZINC43288054
   31    32     0     0     0
SMALL
USER_CHARGES

@<TRIPOS>ATOM
      1 C1          2.3496    1.3574    0.5428 C.3       1 <0>        -0.1716
      2 C2          2.2331   -0.1215    0.9174 C.3       1 <0>        -0.1463
      3 C3          0.7587   -0.5301    0.9289 C.3       1 <0>         0.0113
      4 H1          0.3059   -0.2836   -0.0314 H         1 <0>         0.1494
      5 C4          0.6489   -2.0365    1.1730 C.3       1 <0>         0.2601
      6 H2          1.0603   -2.2767    2.1533 H         1 <0>         0.1469
      7 C5         -0.7995   -2.4495    1.1211 C.2       1 <0>        -0.2700
      8 C6         -1.5211   -3.1478    2.0317 C.2       1 <0>        -0.0557
      9 C7         -2.8522   -3.4149    1.7700 C.2       1 <0>        -0.1517
     10 C8         -3.3960   -2.9702    0.6103 C.2       1 <0>        -0.0831
     11 S1         -2.0119   -2.1393   -0.1520 S.3       1 <0>         0.1075
     12 Br1        -3.8983   -4.3859    3.0105 Br        1 <0>         0.0022
     13 N1          1.3988   -2.7546    0.1394 N.pl3     1 <0>        -0.3784
     14 C9          0.9401   -3.0921   -1.0848 C.2       1 <0>         0.0915
     15 C10         1.9351   -3.7415   -1.7333 C.2       1 <0>        -0.2243
     16 C11         3.0392   -3.8028   -0.8760 C.2       1 <0>         0.1017
     17 N2          2.7204   -3.2070    0.2445 N.2       1 <0>        -0.2711
     18 Br2         1.8479   -4.4428   -3.4873 Br        1 <0>         0.0067
     19 N3          0.0589    0.1918    1.9999 N.4       1 <0>        -0.6296
     20 H3          1.8110    1.9608    1.2736 H         1 <0>         0.0546
     21 H4          3.3999    1.6485    0.5346 H         1 <0>         0.0889
     22 H5          1.9207    1.5164   -0.4466 H         1 <0>         0.0730
     23 H6          2.7717   -0.7249    0.1867 H         1 <0>         0.1177
     24 H7          2.6620   -0.2806    1.9068 H         1 <0>         0.0983
     25 H8         -1.0630   -3.4907    2.9477 H         1 <0>         0.1560
     26 H9         -4.4058   -3.0849    0.2447 H         1 <0>         0.2119
     27 H10        -0.0443   -2.8821   -1.4762 H         1 <0>         0.1833
     28 H11         3.9915   -4.2595   -1.1017 H         1 <0>         0.2040
     29 H12         0.1313    1.1852    1.8390 H         1 <0>         0.4434
     30 H13        -0.9134   -0.0777    2.0075 H         1 <0>         0.4356
     31 H14         0.4781   -0.0364    2.8889 H         1 <0>         0.4379
@<TRIPOS>BOND
     1    1    2 1
     2    1   20 1
     3    1   21 1
     4    1   22 1
     5    2    3 1
     6    2   23 1
     7    2   24 1
     8    3    4 1
     9    3    5 1
    10    3   19 1
    11    5    6 1
    12    5    7 1
    13    5   13 1
    14    7   11 1
    15    7    8 2
    16    8    9 1
    17    8   25 1
    18    9   10 2
    19    9   12 1
    20   10   11 1
    21   10   26 1
    22   13   17 1
    23   13   14 1
    24   14   15 2
    25   14   27 1
    26   15   16 1
    27   15   18 1
    28   16   17 2
    29   16   28 1
    30   19   29 1
    31   19   30 1
    32   19   31 1
@<TRIPOS>MOLECULE
ZINC61269373
   37    38     0     0     0
SMALL
USER_CHARGES

@<TRIPOS>ATOM
      1 C1          0.7826    1.3976   -1.1320 C.ar      1 <0>        -0.0701
      2 C2          1.1721    2.0875    0.0022 C.ar      1 <0>        -0.0561
      3 C3          1.5833    1.3970    1.1283 C.ar      1 <0>        -0.0701
      4 C4          1.6062    0.0149    1.1234 C.ar      1 <0>        -0.0098
      5 C5          1.2152   -0.6808   -0.0138 C.ar      1 <0>         0.1422
      6 C6          0.8028    0.0155   -1.1431 C.ar      1 <0>        -0.0081
      7 Cl1         0.3134   -0.8493   -2.5666 Cl        1 <0>        -0.0280
      8 N1          1.2377   -2.0812   -0.0222 N.am      1 <0>        -0.6555
      9 C7          0.1559   -2.7750    0.3840 C.2       1 <0>         0.5100
     10 O1         -0.8672   -2.1900    0.6707 O.2       1 <0>        -0.4996
     11 C8          0.2176   -4.2775    0.4822 C.3       1 <0>        -0.0356
     12 N2         -1.0787   -4.7917    0.9440 N.4       1 <0>        -0.3520
     13 C9         -0.9466   -6.2375    1.2239 C.3       1 <0>        -0.0056
     14 C10        -2.0500   -6.6527    2.1641 C.3       1 <0>        -0.1847
     15 C11        -3.2810   -7.1833    1.4084 C.3       1 <0>         0.0482
     16 N3         -3.5908   -6.3780    0.2048 N.3       1 <0>        -0.6928
     17 C12        -3.4566   -4.9536    0.4109 C.3       1 <0>         0.0608
     18 C13        -2.0458   -4.5169   -0.0280 C.3       1 <0>        -0.0918
     19 Cl2         2.1235   -0.8506    2.5365 Cl        1 <0>        -0.0298
     20 Br1         1.1429    3.9783    0.0130 Br        1 <0>         0.0053
     21 H1          0.4581    1.9394   -2.0082 H         1 <0>         0.1623
     22 H2          1.8872    1.9384    2.0120 H         1 <0>         0.1622
     23 H3          2.0318   -2.5518   -0.3203 H         1 <0>         0.4256
     24 H4          0.4464   -4.6965   -0.4977 H         1 <0>         0.1654
     25 H5          0.9952   -4.5638    1.1903 H         1 <0>         0.1678
     26 H6         -1.0291   -6.7988    0.2932 H         1 <0>         0.1320
     27 H7          0.0207   -6.4332    1.6866 H         1 <0>         0.1404
     28 H8         -1.6765   -7.4339    2.8261 H         1 <0>         0.1200
     29 H9         -2.3463   -5.7927    2.7648 H         1 <0>         0.0862
     30 H10        -3.0930   -8.2135    1.1057 H         1 <0>         0.0917
     31 H11        -4.1415   -7.1647    2.0773 H         1 <0>         0.0959
     32 H12        -3.0416   -6.6824   -0.5851 H         1 <0>         0.3509
     33 H13        -4.2033   -4.4268   -0.1833 H         1 <0>         0.1215
     34 H14        -3.5984   -4.7225    1.4667 H         1 <0>         0.0921
     35 H15        -2.0533   -3.4451   -0.2260 H         1 <0>         0.1557
     36 H16        -1.7831   -5.0422   -0.9463 H         1 <0>         0.1259
     37 H17        -1.3312   -4.3176    1.7981 H         1 <0>         0.4274
@<TRIPOS>BOND
     1    1    6 ar
     2    1    2 ar
     3    1   21 1
     4    2    3 ar
     5    2   20 1
     6    3    4 ar
     7    3   22 1
     8    4    5 ar
     9    4   19 1
    10    5    6 ar
    11    5    8 1
    12    6    7 1
    13    8    9 am
    14    8   23 1
    15    9   10 2
    16    9   11 1
    17   11   12 1
    18   11   24 1
    19   11   25 1
    20   12   18 1
    21   12   13 1
    22   12   37 1
    23   13   14 1
    24   13   26 1
    25   13   27 1
    26   14   15 1
    27   14   28 1
    28   14   29 1
    29   15   16 1
    30   15   30 1
    31   15   31 1
    32   16   17 1
    33   16   32 1
    34   17   18 1
    35   17   33 1
    36   17   34 1
    37   18   35 1
    38   18   36 1
@<TRIPOS>MOLECULE
ZINC20505943
   30    31     0     0     0
SMALL
USER_CHARGES
(2R,4S)-N-(4-bromo-2,6-dichloro-phenyl)-4-hydroxy-pyrrolidine-2-carboxamide
@<TRIPOS>ATOM
      1 C1         -0.0449    5.6742    0.1289 C.ar      1 <0>        -0.0702
      2 C2          1.0867    6.3512   -0.2898 C.ar      1 <0>        -0.0579
      3 C3          2.2359    5.6511   -0.6115 C.ar      1 <0>        -0.0705
      4 C4          2.2566    4.2723   -0.5153 C.ar      1 <0>        -0.0113
      5 C5          1.1219    3.5896   -0.0951 C.ar      1 <0>         0.1491
      6 C6         -0.0321    4.2951    0.2221 C.ar      1 <0>        -0.0099
      7 Cl1        -1.4547    3.4461    0.7407 Cl        1 <0>        -0.0278
      8 N1          1.1395    2.1925    0.0030 N.am      1 <0>        -0.6699
      9 C7          0.8120    1.4378   -1.0646 C.2       1 <0>         0.5143
     10 O1          0.4199    1.9663   -2.0835 O.2       1 <0>        -0.5037
     11 C8          0.9387   -0.0622   -0.9944 C.3       1 <0>         0.0178
     12 H1          1.8911   -0.3003   -0.4982 H         1 <0>         0.1682
     13 C9         -0.2754   -0.6573   -0.2574 C.3       1 <0>        -0.1290
     14 C10        -0.9353   -1.6160   -1.2750 C.3       1 <0>         0.0982
     15 H2         -1.8622   -1.2460   -1.7375 H         1 <0>         0.1013
     16 C11         0.2214   -1.9281   -2.2574 C.3       1 <0>        -0.0321
     17 N2          0.9399   -0.6322   -2.3592 N.4       1 <0>        -0.5279
     18 O2         -1.3852   -2.8082   -0.6283 O.3       1 <0>        -0.5840
     19 Cl2         3.6988    3.3946   -0.9196 Cl        1 <0>        -0.0323
     20 Br1         1.0625    8.2373   -0.4234 Br        1 <0>         0.0040
     21 H3         -0.9405    6.2235    0.3789 H         1 <0>         0.1613
     22 H4          3.1177    6.1824   -0.9377 H         1 <0>         0.1612
     23 H5          1.4206    1.7112    0.9513 H         1 <0>         0.4527
     24 H6          0.0670   -1.1930    0.6402 H         1 <0>         0.1304
     25 H7         -0.9586    0.1528    0.0374 H         1 <0>         0.1130
     26 H8          0.8516   -2.7271   -1.8398 H         1 <0>         0.1480
     27 H9         -0.1947   -2.2555   -3.2216 H         1 <0>         0.1457
     28 H10         0.4248    0.0568   -3.0447 H         1 <0>         0.4623
     29 H11        -1.8796   -3.5980   -1.2129 H         1 <0>         0.4369
     30 H12         1.9773   -0.7765   -2.6954 H         1 <0>         0.4622
@<TRIPOS>BOND
     1    1    6 ar
     2    1    2 ar
     3    1   21 1
     4    2    3 ar
     5    2   20 1
     6    3    4 ar
     7    3   22 1
     8    4    5 ar
     9    4   19 1
    10    5    6 ar
    11    5    8 1
    12    6    7 1
    13    8    9 am
    14    8   23 1
    15    9   10 2
    16    9   11 1
    17   11   12 1
    18   11   17 1
    19   11   13 1
    20   13   14 1
    21   13   24 1
    22   13   25 1
    23   14   15 1
    24   14   16 1
    25   14   18 1
    26   16   17 1
    27   16   26 1
    28   16   27 1
    29   17   28 1
    30   17   30 1
    31   18   29 1
@<TRIPOS>MOLECULE
ZINC43259052
   43    44     0     0     0
SMALL
USER_CHARGES

@<TRIPOS>ATOM
      1 C1          0.5527    2.1304   -1.4260 C.3       1 <0>        -0.1769
      2 C2          0.7025    0.9199   -0.5025 C.3       1 <0>         0.0436
      3 H1         -0.1765    0.8398    0.1371 H         1 <0>         0.1488
      4 C3          0.8378   -0.3504   -1.3445 C.3       1 <0>         0.1358
      5 H2          0.0033   -0.4140   -2.0428 H         1 <0>         0.1563
      6 C4          0.8291   -1.5559   -0.4402 C.2       1 <0>        -0.2269
      7 C5         -0.0347   -2.5998   -0.4182 C.2       1 <0>        -0.0913
      8 C6          0.1533   -3.6065    0.5106 C.2       1 <0>        -0.1154
      9 C7          1.1972   -3.5190    1.3722 C.2       1 <0>        -0.1365
     10 S1          1.9587   -1.9828    0.8747 S.3       1 <0>         0.0459
     11 Br1         1.7158   -4.7169    2.7403 Br        1 <0>         0.0703
     12 N1          2.1009   -0.3091   -2.0934 N.3       1 <0>        -0.5217
     13 C8          3.2174   -0.7885   -1.2689 C.3       1 <0>         0.0221
     14 C9          4.5327   -0.5957   -2.0271 C.3       1 <0>        -0.1166
     15 C10         4.4756   -1.3741   -3.3445 C.3       1 <0>        -0.1264
     16 C11         3.2759   -0.8893   -4.1631 C.3       1 <0>        -0.1179
     17 C12         1.9970   -1.0736   -3.3429 C.3       1 <0>         0.0904
     18 H3          1.8628   -2.1304   -3.1121 H         1 <0>         0.0590
     19 C13         0.7975   -0.5718   -4.1494 C.3       1 <0>        -0.1202
     20 C14         0.6798   -1.3786   -5.4440 C.3       1 <0>         0.0732
     21 O1         -0.3946   -0.8615   -6.2315 O.3       1 <0>        -0.5745
     22 N2          1.9010    1.0850    0.3308 N.4       1 <0>        -0.6408
     23 H4          1.4317    2.2104   -2.0656 H         1 <0>         0.0965
     24 H5         -0.3366    2.0079   -2.0443 H         1 <0>         0.1074
     25 H6          0.4563    3.0354   -0.8261 H         1 <0>         0.0843
     26 H7         -0.8581   -2.6446   -1.1157 H         1 <0>         0.1525
     27 H8         -0.5207   -4.4494    0.5497 H         1 <0>         0.1571
     28 H9          3.2493   -0.2240   -0.3370 H         1 <0>         0.0469
     29 H10         3.0775   -1.8467   -1.0478 H         1 <0>         0.0782
     30 H11         4.6801    0.4638   -2.2365 H         1 <0>         0.0777
     31 H12         5.3597   -0.9660   -1.4212 H         1 <0>         0.0805
     32 H13         5.3933   -1.2046   -3.9078 H         1 <0>         0.0780
     33 H14         4.3673   -2.4381   -3.1345 H         1 <0>         0.0648
     34 H15         3.4035    0.1656   -4.4061 H         1 <0>         0.0801
     35 H16         3.2049   -1.4693   -5.0832 H         1 <0>         0.0803
     36 H17        -0.1122   -0.6936   -3.5614 H         1 <0>         0.0709
     37 H18         0.9365    0.4823   -4.3895 H         1 <0>         0.0874
     38 H19         1.6111   -1.3027   -6.0053 H         1 <0>         0.0544
     39 H20         0.4843   -2.4238   -5.2042 H         1 <0>         0.0458
     40 H21        -0.5276   -1.3263   -7.0690 H         1 <0>         0.3894
     41 H22         1.7465    1.8247    0.9994 H         1 <0>         0.4337
     42 H23         2.0915    0.2235    0.8204 H         1 <0>         0.4152
     43 H24         2.6881    1.3201   -0.2550 H         1 <0>         0.4386
@<TRIPOS>BOND
     1    1    2 1
     2    1   23 1
     3    1   24 1
     4    1   25 1
     5    2    3 1
     6    2    4 1
     7    2   22 1
     8    4    5 1
     9    4    6 1
    10    4   12 1
    11    6   10 1
    12    6    7 2
    13    7    8 1
    14    7   26 1
    15    8    9 2
    16    8   27 1
    17    9   10 1
    18    9   11 1
    19   12   17 1
    20   12   13 1
    21   13   14 1
    22   13   28 1
    23   13   29 1
    24   14   15 1
    25   14   30 1
    26   14   31 1
    27   15   16 1
    28   15   32 1
    29   15   33 1
    30   16   17 1
    31   16   34 1
    32   16   35 1
    33   17   18 1
    34   17   19 1
    35   19   20 1
    36   19   36 1
    37   19   37 1
    38   20   21 1
    39   20   38 1
    40   20   39 1
    41   21   40 1
    42   22   41 1
    43   22   42 1
    44   22   43 1
@<TRIPOS>MOLECULE
ZINC50395951
   43    44     0     0     0
SMALL
USER_CHARGES

@<TRIPOS>ATOM
      1 C1          0.5578    1.4998    0.0123 C.3       1 <0>        -0.1173
      2 C2          0.4788   -0.0051    0.0029 C.ar      1 <0>        -0.1041
      3 C3          0.4800   -0.6888   -1.1991 C.ar      1 <0>        -0.0660
      4 C4          0.4072   -2.0683   -1.2109 C.ar      1 <0>        -0.1988
      5 C5          0.3332   -2.7682   -0.0155 C.ar      1 <0>         0.1385
      6 C6          0.3327   -2.0801    1.1898 C.ar      1 <0>        -0.1156
      7 C7          0.4109   -0.6999    1.1961 C.ar      1 <0>        -0.0527
      8 Br1         0.2314   -3.0298    2.8219 Br        1 <0>        -0.0270
      9 O1          0.2611   -4.1254   -0.0246 O.3       1 <0>        -0.2885
     10 C8          0.2659   -4.7668   -1.3016 C.3       1 <0>         0.0286
     11 C9          0.1792   -6.2824   -1.1114 C.3       1 <0>         0.0867
     12 H1          0.9849   -6.6130   -0.4560 H         1 <0>         0.1378
     13 C10         0.3097   -6.9751   -2.4694 C.3       1 <0>        -0.0433
     14 N1          0.2264   -8.4303   -2.2868 N.4       1 <0>        -0.4914
     15 C11         0.2283   -9.0895   -3.5996 C.3       1 <0>         0.0154
     16 H2         -0.5699   -8.6737   -4.2146 H         1 <0>         0.1708
     17 C12         1.5755   -8.8516   -4.2861 C.3       1 <0>        -0.1476
     18 C13         1.6611   -9.7646   -5.5152 C.3       1 <0>        -0.1353
     19 C14         1.7376  -11.2167   -5.0420 C.3       1 <0>         0.0901
     20 N2          0.6718  -11.4996   -4.0889 N.am      1 <0>        -0.6900
     21 C15         0.0022  -10.5630   -3.4183 C.2       1 <0>         0.5026
     22 O2         -0.8364  -10.9209   -2.6187 O.2       1 <0>        -0.5279
     23 O3         -1.0800   -6.6176   -0.5248 O.3       1 <0>        -0.5388
     24 H3          1.6028    1.8086    0.0414 H         1 <0>         0.0765
     25 H4          0.0875    1.8940   -0.8885 H         1 <0>         0.0719
     26 H5          0.0404    1.8853    0.8908 H         1 <0>         0.0725
     27 H6          0.5375   -0.1437   -2.1297 H         1 <0>         0.1354
     28 H7          0.4074   -2.6014   -2.1501 H         1 <0>         0.1327
     29 H8          0.4146   -0.1639    2.1337 H         1 <0>         0.1437
     30 H9         -0.5897   -4.4241   -1.8836 H         1 <0>         0.0793
     31 H10         1.1869   -4.5189   -1.8292 H         1 <0>         0.0838
     32 H11        -0.4960   -6.6445   -3.1249 H         1 <0>         0.1434
     33 H12         1.2702   -6.7194   -2.9169 H         1 <0>         0.1499
     34 H13         1.0196   -8.7479   -1.7499 H         1 <0>         0.4317
     35 H14         1.6500   -7.8096   -4.5972 H         1 <0>         0.1074
     36 H15         2.3857   -9.0879   -3.5963 H         1 <0>         0.0986
     37 H16         0.7747   -9.6280   -6.1346 H         1 <0>         0.0887
     38 H17         2.5538   -9.5201   -6.0910 H         1 <0>         0.1135
     39 H18         1.6389  -11.8811   -5.9005 H         1 <0>         0.1007
     40 H19         2.7025  -11.3900   -4.5654 H         1 <0>         0.0865
     41 H20         0.4360  -12.4274   -3.9328 H         1 <0>         0.4224
     42 H21        -1.8440   -6.3524   -1.0550 H         1 <0>         0.3906
     43 H22        -0.6251   -8.6596   -1.7965 H         1 <0>         0.4445
@<TRIPOS>BOND
     1    1    2 1
     2    1   24 1
     3    1   25 1
     4    1   26 1
     5    2    7 ar
     6    2    3 ar
     7    3    4 ar
     8    3   27 1
     9    4    5 ar
    10    4   28 1
    11    5    6 ar
    12    5    9 1
    13    6    7 ar
    14    6    8 1
    15    7   29 1
    16    9   10 1
    17   10   11 1
    18   10   30 1
    19   10   31 1
    20   11   12 1
    21   11   13 1
    22   11   23 1
    23   13   14 1
    24   13   32 1
    25   13   33 1
    26   14   15 1
    27   14   34 1
    28   14   43 1
    29   15   16 1
    30   15   21 1
    31   15   17 1
    32   17   18 1
    33   17   35 1
    34   17   36 1
    35   18   19 1
    36   18   37 1
    37   18   38 1
    38   19   20 1
    39   19   39 1
    40   19   40 1
    41   20   21 am
    42   20   41 1
    43   21   22 2
    44   23   42 1
@<TRIPOS>MOLECULE
ZINC61332675
   58    60     0     0     0
SMALL
USER_CHARGES

@<TRIPOS>ATOM
      1 C1         -1.1678    1.5835    0.3001 C.3       1 <0>        -0.1688
      2 C2         -0.2344    0.3958    0.0572 C.3       1 <0>         0.1414
      3 C3          0.5989    0.6509   -1.2004 C.3       1 <0>        -0.0992
      4 C4          1.3578   -0.6310   -1.6132 C.3       1 <0>        -0.1172
      5 C5          0.8165   -0.9685   -3.0360 C.3       1 <0>        -0.1049
      6 C6         -0.6502   -1.4393   -2.7942 C.3       1 <0>        -0.1224
      7 C7         -1.4090   -0.1574   -2.3814 C.3       1 <0>        -0.1338
      8 C8         -0.3294    0.9671   -2.4127 C.3       1 <0>        -0.0923
      9 C9          0.5685    0.4743   -3.6019 C.3       1 <0>        -0.1252
     10 N1          0.6566    0.2315    1.2084 N.am      1 <0>        -0.6970
     11 C10         0.2482   -0.4747    2.2812 C.2       1 <0>         0.5042
     12 O1         -0.8569   -0.9742    2.2936 O.2       1 <0>        -0.5223
     13 C11         1.1648   -0.6437    3.4655 C.3       1 <0>         0.0037
     14 C12         2.0555   -1.8690    3.2503 C.3       1 <0>        -0.1782
     15 N2          0.3633   -0.8287    4.6826 N.4       1 <0>        -0.3693
     16 C13        -0.5198    0.3294    4.8657 C.3       1 <0>        -0.0119
     17 C14        -1.4144    0.1053    6.0868 C.3       1 <0>        -0.1386
     18 C15        -0.5375   -0.0715    7.3297 C.3       1 <0>        -0.0852
     19 C16         0.4305   -1.2353    7.0980 C.3       1 <0>        -0.1473
     20 C17         1.2568   -0.9616    5.8395 C.3       1 <0>        -0.0079
     21 C18        -1.4218   -0.3749    8.5408 C.3       1 <0>        -0.1425
     22 C19        -0.5709   -0.4271    9.7836 C.2       1 <0>         0.5163
     23 O2          0.6250   -0.2401    9.7080 O.2       1 <0>        -0.5460
     24 N3         -1.1390   -0.6816   10.9790 N.am      1 <0>        -0.8514
     25 H1         -0.5762    2.4891    0.4338 H         1 <0>         0.0621
     26 H2         -1.8308    1.7057   -0.5564 H         1 <0>         0.0812
     27 H3         -1.7615    1.4017    1.1960 H         1 <0>         0.0578
     28 H4         -0.8260   -0.5099   -0.0765 H         1 <0>         0.1049
     29 H5          1.2973    1.4707   -1.0326 H         1 <0>         0.0808
     30 H6          2.4307   -0.4423   -1.6497 H         1 <0>         0.0665
     31 H7          1.1372   -1.4429   -0.9203 H         1 <0>         0.0631
     32 H8          1.4441   -1.6222   -3.6418 H         1 <0>         0.1008
     33 H9         -1.0725   -1.8526   -3.7102 H         1 <0>         0.0673
     34 H10        -0.6852   -2.1766   -1.9922 H         1 <0>         0.0611
     35 H11        -2.2044    0.0595   -3.0944 H         1 <0>         0.0688
     36 H12        -1.8172   -0.2645   -1.3764 H         1 <0>         0.0700
     37 H13        -0.7065    1.9882   -2.4704 H         1 <0>         0.1035
     38 H14         1.4927    1.0468   -3.6809 H         1 <0>         0.0717
     39 H15         0.0230    0.4552   -4.5454 H         1 <0>         0.0756
     40 H16         1.5405    0.6310    1.1985 H         1 <0>         0.4077
     41 H17         1.7880    0.2442    3.5722 H         1 <0>         0.1550
     42 H18         2.6502   -1.7317    2.3472 H         1 <0>         0.1102
     43 H19         2.7184   -1.9912    4.1068 H         1 <0>         0.0981
     44 H20         1.4323   -2.7569    3.1435 H         1 <0>         0.0899
     45 H21         0.0828    1.2250    5.0168 H         1 <0>         0.1277
     46 H22        -1.1410    0.4558    3.9790 H         1 <0>         0.1340
     47 H23        -2.0681    0.9670    6.2221 H         1 <0>         0.1140
     48 H24        -2.0177   -0.7900    5.9366 H         1 <0>         0.0917
     49 H25         0.0281    0.8427    7.5098 H         1 <0>         0.0989
     50 H26         1.0956   -1.3319    7.9562 H         1 <0>         0.1314
     51 H27        -0.1345   -2.1585    6.9689 H         1 <0>         0.0850
     52 H28         1.9472   -1.7882    5.6718 H         1 <0>         0.1344
     53 H29         1.8215   -0.0385    5.9698 H         1 <0>         0.1317
     54 H30        -2.1729    0.4077    8.6474 H         1 <0>         0.1067
     55 H31        -1.9160   -1.3359    8.3982 H         1 <0>         0.1023
     56 H32        -2.0955   -0.8312   11.0394 H         1 <0>         0.4056
     57 H33        -0.5913   -0.7152   11.7789 H         1 <0>         0.4080
     58 H34        -0.1952   -1.6641    4.5925 H         1 <0>         0.4285
@<TRIPOS>BOND
     1    1    2 1
     2    1   25 1
     3    1   26 1
     4    1   27 1
     5    2    3 1
     6    2   10 1
     7    2   28 1
     8    3    8 1
     9    3    4 1
    10    3   29 1
    11    4    5 1
    12    4   30 1
    13    4   31 1
    14    5    9 1
    15    5    6 1
    16    5   32 1
    17    6    7 1
    18    6   33 1
    19    6   34 1
    20    7    8 1
    21    7   35 1
    22    7   36 1
    23    8    9 1
    24    8   37 1
    25    9   38 1
    26    9   39 1
    27   10   11 am
    28   10   40 1
    29   11   12 2
    30   11   13 1
    31   13   14 1
    32   13   15 1
    33   13   41 1
    34   14   42 1
    35   14   43 1
    36   14   44 1
    37   15   20 1
    38   15   16 1
    39   15   58 1
    40   16   17 1
    41   16   45 1
    42   16   46 1
    43   17   18 1
    44   17   47 1
    45   17   48 1
    46   18   19 1
    47   18   21 1
    48   18   49 1
    49   19   20 1
    50   19   50 1
    51   19   51 1
    52   20   52 1
    53   20   53 1
    54   21   22 1
    55   21   54 1
    56   21   55 1
    57   22   23 2
    58   22   24 am
    59   24   56 1
    60   24   57 1
@<TRIPOS>MOLECULE
ZINC63740162
   43    45     0     0     0
SMALL
USER_CHARGES

@<TRIPOS>ATOM
      1 C1         -0.0187    1.5258    0.0104 C.3       1 <0>        -0.1388
      2 C2          0.0021   -0.0041    0.0020 C.3       1 <0>         0.1203
      3 H1          0.5174   -0.3890   -0.8780 H         1 <0>         0.1222
      4 N1         -1.3754   -0.5731    0.1251 N.3       1 <0>        -0.4941
      5 N2         -1.3668   -1.9224    0.6504 N.3       1 <0>        -0.5211
      6 C3         -0.2865   -2.2253    1.6199 C.3       1 <0>         0.1350
      7 H2          0.2989   -3.0852    1.2943 H         1 <0>         0.1425
      8 S1          0.7240   -0.6825    1.5633 S.3       1 <0>        -0.3440
      9 S2         -0.9639   -2.4978    3.2804 S.3       1 <0>        -0.0740
     10 C4         -1.7951   -0.9351    3.6773 C.3       1 <0>        -0.1385
     11 C5         -2.4098   -1.0275    5.0501 C.2       1 <0>         0.5391
     12 O1         -2.2981   -2.0472    5.6971 O.2       1 <0>        -0.5089
     13 N3         -3.0836    0.0230    5.5589 N.am      1 <0>        -0.7321
     14 C6         -3.6811   -0.0668    6.8935 C.3       1 <0>         0.1269
     15 C7         -4.3821    1.2513    7.2282 C.3       1 <0>        -0.1047
     16 C8         -4.9968    1.1588    8.6010 C.2       1 <0>         0.0697
     17 C9         -4.4514    1.5768    9.7660 C.ar      1 <0>        -0.1664
     18 C10        -3.1712    2.2169   10.0914 C.ar      1 <0>        -0.0131
     19 C11        -2.9003    2.5241   11.3804 C.ar      1 <0>        -0.1498
     20 C12        -3.8090    2.2466   12.4108 C.ar      1 <0>         0.0551
     21 C13        -5.0048    1.6604   12.1904 C.ar      1 <0>        -0.2098
     22 C14        -5.3939    1.2948   10.8722 C.ar      1 <0>         0.3280
     23 N4         -6.4798    0.7247   10.4091 N.pl3     1 <0>        -0.5845
     24 C15        -6.3512    0.5859    8.9542 C.3       1 <0>         0.0604
     25 H3          1.0039    1.9031    0.0027 H         1 <0>         0.0816
     26 H4         -0.5459    1.8868   -0.8726 H         1 <0>         0.0893
     27 H5         -0.5289    1.8773    0.9072 H         1 <0>         0.0694
     28 H6         -1.9664    0.0274    0.6803 H         1 <0>         0.3672
     29 H7         -1.3835   -2.6012   -0.0960 H         1 <0>         0.3801
     30 H8         -1.0690   -0.1223    3.6582 H         1 <0>         0.1227
     31 H9         -2.5760   -0.7419    2.9418 H         1 <0>         0.1175
     32 H10        -3.1728    0.8386    5.0414 H         1 <0>         0.4076
     33 H11        -4.4072   -0.8796    6.9125 H         1 <0>         0.0801
     34 H12        -2.9002   -0.2600    7.6290 H         1 <0>         0.0806
     35 H13        -3.6561    2.0640    7.2092 H         1 <0>         0.1165
     36 H14        -5.1631    1.4444    6.4927 H         1 <0>         0.1198
     37 H15        -2.4561    2.4391    9.3132 H         1 <0>         0.1606
     38 H16        -1.9590    2.9951   11.6220 H         1 <0>         0.1583
     39 H17        -3.5414    2.5124   13.4228 H         1 <0>         0.1614
     40 H18        -5.6695    1.4676   13.0195 H         1 <0>         0.1610
     41 H19        -7.1390    1.1458    8.4501 H         1 <0>         0.1755
     42 H20        -6.3988   -0.4662    8.6736 H         1 <0>         0.1748
     43 H21        -7.2425    0.4451   10.9392 H         1 <0>         0.4564
@<TRIPOS>BOND
     1    1    2 1
     2    1   25 1
     3    1   26 1
     4    1   27 1
     5    2    3 1
     6    2    8 1
     7    2    4 1
     8    4    5 1
     9    4   28 1
    10    5    6 1
    11    5   29 1
    12    6    7 1
    13    6    8 1
    14    6    9 1
    15    9   10 1
    16   10   11 1
    17   10   30 1
    18   10   31 1
    19   11   12 2
    20   11   13 am
    21   13   14 1
    22   13   32 1
    23   14   15 1
    24   14   33 1
    25   14   34 1
    26   15   16 1
    27   15   35 1
    28   15   36 1
    29   16   24 1
    30   16   17 2
    31   17   22 ar
    32   17   18 ar
    33   18   19 ar
    34   18   37 1
    35   19   20 ar
    36   19   38 1
    37   20   21 ar
    38   20   39 1
    39   21   22 ar
    40   21   40 1
    41   22   23 2
    42   23   24 1
    43   23   43 1
    44   24   41 1
    45   24   42 1
@<TRIPOS>MOLECULE
ZINC11239835
   27    28     0     0     0
SMALL
USER_CHARGES
3-[(2-bromo-4-fluoro-phenyl)methylsulfanyl]-5-(trifluoromethyl)-1,2,4-triazol-4-amine
@<TRIPOS>ATOM
      1 C1          0.4511    7.7917   -1.1601 C.ar      1 <0>        -0.1370
      2 C2          0.2980    6.4180   -1.1643 C.ar      1 <0>        -0.0598
      3 C3          0.2330    5.7255    0.0300 C.ar      1 <0>        -0.0747
      4 C4          0.3159    6.4071    1.2312 C.ar      1 <0>        -0.0480
      5 C5          0.4743    7.7806    1.2373 C.ar      1 <0>        -0.1261
      6 C6          0.5394    8.4746    0.0410 C.ar      1 <0>         0.1224
      7 F1          0.6895    9.8172    0.0457 F         1 <0>        -0.1263
      8 Br1         0.2196    5.4591    2.8646 Br        1 <0>        -0.0171
      9 C7          0.0656    4.2279    0.0239 C.3       1 <0>        -0.0712
     10 S1          1.6944    3.4388    0.0038 S.3       1 <0>         0.0317
     11 C8          1.2132    1.7437   -0.0002 C.2       1 <0>         0.1472
     12 N1         -0.0154    1.2810    0.0091 N.2       1 <0>        -0.2657
     13 N2          0.0021   -0.0041    0.0020 N.2       1 <0>        -0.2053
     14 C9          1.2318   -0.4347   -0.0120 C.2       1 <0>         0.1151
     15 N3          2.0475    0.6630   -0.0139 N.pl3     1 <0>        -0.2802
     16 N4          3.4134    0.6755   -0.0273 N.3       1 <0>        -0.5808
     17 C10         1.6733   -1.8755   -0.0244 C.3       1 <0>         0.5778
     18 F2          0.5885   -2.6928   -0.3597 F         1 <0>        -0.1462
     19 F3          2.6925   -2.0428   -0.9681 F         1 <0>        -0.1602
     20 F4          2.1489   -2.2284    1.2430 F         1 <0>        -0.1556
     21 H1          0.5014    8.3324   -2.0937 H         1 <0>         0.1500
     22 H2          0.2287    5.8855   -2.1014 H         1 <0>         0.1496
     23 H3          0.5428    8.3124    2.1749 H         1 <0>         0.1523
     24 H4         -0.4941    3.9284   -0.8622 H         1 <0>         0.1215
     25 H5         -0.4766    3.9193    0.9177 H         1 <0>         0.1230
     26 H6          3.7657    0.6841   -0.9728 H         1 <0>         0.3777
     27 H7          3.7730    1.4572    0.4997 H         1 <0>         0.3856
@<TRIPOS>BOND
     1    1    6 ar
     2    1    2 ar
     3    1   21 1
     4    2    3 ar
     5    2   22 1
     6    3    4 ar
     7    3    9 1
     8    4    5 ar
     9    4    8 1
    10    5    6 ar
    11    5   23 1
    12    6    7 1
    13    9   10 1
    14    9   24 1
    15    9   25 1
    16   10   11 1
    17   11   15 1
    18   11   12 2
    19   12   13 1
    20   13   14 2
    21   14   15 1
    22   14   17 1
    23   15   16 1
    24   16   26 1
    25   16   27 1
    26   17   18 1
    27   17   19 1
    28   17   20 1
@<TRIPOS>MOLECULE
ZINC36964705
   38    41     0     0     0
SMALL
USER_CHARGES

@<TRIPOS>ATOM
      1 C1          1.0429    2.8451    0.0462 C.ar      1 <0>        -0.0537
      2 C2          2.3569    3.2694    0.0841 C.ar      1 <0>        -0.1843
      3 C3          3.3871    2.3380    0.0628 C.ar      1 <0>         0.2459
      4 C4          3.0923    0.9818    0.0033 C.ar      1 <0>        -0.1383
      5 C5          1.7759    0.5638   -0.0344 C.ar      1 <0>        -0.0252
      6 C6          0.7521    1.4948   -0.0131 C.ar      1 <0>        -0.1498
      7 Br1         1.3728   -1.2820   -0.1154 Br        1 <0>        -0.0383
      8 C7          4.2069   -0.0322   -0.0205 C.3       1 <0>        -0.0757
      9 S1          4.6277   -0.5082    1.6786 S.3       1 <0>         0.0181
     10 C8          5.9275   -1.6816    1.4831 C.2       1 <0>         0.1512
     11 N1          6.4490   -2.0870    0.3485 N.2       1 <0>        -0.2874
     12 N2          7.3764   -2.9470    0.5769 N.2       1 <0>        -0.2817
     13 C9          7.5012   -3.1403    1.8594 C.2       1 <0>         0.2247
     14 N3          6.5869   -2.3369    2.4831 N.pl3     1 <0>        -0.4301
     15 C10         6.3597   -2.2087    3.9247 C.3       1 <0>         0.0476
     16 C11         5.0466   -1.5679    4.3787 C.3       1 <0>        -0.1742
     17 C12         6.3616   -0.7982    4.5174 C.3       1 <0>        -0.1708
     18 C13         8.4769   -4.0718    2.5314 C.3       1 <0>        -0.0928
     19 C14         9.5511   -4.7208    1.6563 C.3       1 <0>        -0.1458
     20 C15         8.3859   -5.5594    2.1856 C.3       1 <0>        -0.1557
     21 N4          4.7167    2.7642    0.1007 N.pl3     1 <0>        -0.8669
     22 H1          0.2416    3.5689    0.0672 H         1 <0>         0.1348
     23 H2          2.5830    4.3245    0.1300 H         1 <0>         0.1312
     24 H3         -0.2761    1.1658   -0.0424 H         1 <0>         0.1339
     25 H4          3.8847   -0.9132   -0.5755 H         1 <0>         0.1129
     26 H5          5.0824    0.4015   -0.5037 H         1 <0>         0.0984
     27 H6          6.7661   -3.0129    4.5380 H         1 <0>         0.1522
     28 H7          4.3518   -1.2418    3.6048 H         1 <0>         0.1201
     29 H8          4.5888   -1.9507    5.2908 H         1 <0>         0.1214
     30 H9          6.7689   -0.6745    5.5209 H         1 <0>         0.1173
     31 H10         6.5319    0.0344    3.8349 H         1 <0>         0.1073
     32 H11         8.7509   -3.8083    3.5530 H         1 <0>         0.1250
     33 H12         9.5521   -4.4741    0.5946 H         1 <0>         0.1105
     34 H13        10.5322   -4.8844    2.1021 H         1 <0>         0.1065
     35 H14         8.6005   -6.2747    2.9796 H         1 <0>         0.1066
     36 H15         7.6204   -5.8644    1.4721 H         1 <0>         0.1007
     37 H16         4.9214    3.7115    0.1419 H         1 <0>         0.4037
     38 H17         5.4354    2.1129    0.0858 H         1 <0>         0.4008
@<TRIPOS>BOND
     1    1    6 ar
     2    1    2 ar
     3    1   22 1
     4    2    3 ar
     5    2   23 1
     6    3    4 ar
     7    3   21 1
     8    4    5 ar
     9    4    8 1
    10    5    6 ar
    11    5    7 1
    12    6   24 1
    13    8    9 1
    14    8   25 1
    15    8   26 1
    16    9   10 1
    17   10   14 1
    18   10   11 2
    19   11   12 1
    20   12   13 2
    21   13   14 1
    22   13   18 1
    23   14   15 1
    24   15   17 1
    25   15   16 1
    26   15   27 1
    27   16   17 1
    28   16   28 1
    29   16   29 1
    30   17   30 1
    31   17   31 1
    32   18   20 1
    33   18   19 1
    34   18   32 1
    35   19   20 1
    36   19   33 1
    37   19   34 1
    38   20   35 1
    39   20   36 1
    40   21   37 1
    41   21   38 1
@<TRIPOS>MOLECULE
ZINC40451922
   41    42     0     0     0
SMALL
USER_CHARGES

@<TRIPOS>ATOM
      1 C1         -3.3942    0.7919   -0.3564 C.3       1 <0>        -0.1488
      2 C2         -2.2731   -0.2471   -0.2874 C.3       1 <0>        -0.0903
      3 C3         -2.8536   -1.5960    0.1420 C.3       1 <0>        -0.1127
      4 C4         -1.7326   -2.6349    0.2110 C.3       1 <0>        -0.1670
      5 C5         -0.6820   -2.1848    1.2281 C.3       1 <0>         0.1432
      6 C6         -0.1015   -0.8359    0.7986 C.3       1 <0>        -0.1194
      7 C7         -1.2225    0.2031    0.7296 C.3       1 <0>        -0.1438
      8 N1         -1.3052   -2.0505    2.5471 N.pl3     1 <0>        -0.9863
      9 C8         -1.2975   -0.7558    3.2325 C.3       1 <0>         0.0821
     10 S1         -2.0184   -3.3623    3.2633 S.o2      1 <0>         2.6861
     11 O1         -3.1097   -2.8654    4.0258 O.2       1 <0>        -0.9575
     12 O2         -2.1828   -4.3409    2.2462 O.2       1 <0>        -0.9358
     13 C9         -0.8588   -4.0220    4.4142 C.ar      1 <0>        -0.7175
     14 C10        -1.0672   -3.8624    5.7720 C.ar      1 <0>         0.0321
     15 C11        -0.1603   -4.3778    6.6768 C.ar      1 <0>        -0.2049
     16 C12         0.9628   -5.0579    6.2222 C.ar      1 <0>         0.2741
     17 C13         1.1696   -5.2172    4.8582 C.ar      1 <0>        -0.1893
     18 C14         0.2554   -4.7036    3.9578 C.ar      1 <0>         0.0480
     19 Br1         0.5314   -4.9263    2.1004 Br        1 <0>        -0.0100
     20 N2          1.8821   -5.5798    7.1351 N.pl3     1 <0>        -0.8606
     21 H1         -2.9806    1.7528   -0.6624 H         1 <0>         0.0530
     22 H2         -4.1427    0.4712   -1.0810 H         1 <0>         0.0536
     23 H3         -3.8579    0.8918    0.6249 H         1 <0>         0.0539
     24 H4         -1.8094   -0.3470   -1.2688 H         1 <0>         0.0673
     25 H5         -3.3173   -1.4961    1.1234 H         1 <0>         0.0582
     26 H6         -3.6021   -1.9166   -0.5825 H         1 <0>         0.0629
     27 H7         -2.1462   -3.5959    0.5170 H         1 <0>         0.1116
     28 H8         -1.2689   -2.7348   -0.7704 H         1 <0>         0.0734
     29 H9          0.1167   -2.9250    1.2772 H         1 <0>         0.0872
     30 H10         0.6470   -0.5152    1.5232 H         1 <0>         0.0701
     31 H11         0.3622   -0.9358   -0.1828 H         1 <0>         0.0762
     32 H12        -0.8089    1.1640    0.4237 H         1 <0>         0.0613
     33 H13        -1.6862    0.3029    1.7110 H         1 <0>         0.0900
     34 H14        -2.2371   -0.2376    3.0409 H         1 <0>         0.0681
     35 H15        -1.1814   -0.9130    4.3048 H         1 <0>         0.0610
     36 H16        -0.4682   -0.1533    2.8618 H         1 <0>         0.0895
     37 H17        -1.9403   -3.3338    6.1251 H         1 <0>         0.1504
     38 H18        -0.3236   -4.2520    7.7370 H         1 <0>         0.1380
     39 H19         2.0417   -5.7451    4.5016 H         1 <0>         0.1401
     40 H20         1.7368   -5.4677    8.0876 H         1 <0>         0.4069
     41 H21         2.6658   -6.0544    6.8166 H         1 <0>         0.4057
@<TRIPOS>BOND
     1    1    2 1
     2    1   21 1
     3    1   22 1
     4    1   23 1
     5    2    7 1
     6    2    3 1
     7    2   24 1
     8    3    4 1
     9    3   25 1
    10    3   26 1
    11    4    5 1
    12    4   27 1
    13    4   28 1
    14    5    6 1
    15    5    8 1
    16    5   29 1
    17    6    7 1
    18    6   30 1
    19    6   31 1
    20    7   32 1
    21    7   33 1
    22    8    9 1
    23    8   10 1
    24    9   34 1
    25    9   35 1
    26    9   36 1
    27   10   11 2
    28   10   12 2
    29   10   13 1
    30   13   18 ar
    31   13   14 ar
    32   14   15 ar
    33   14   37 1
    34   15   16 ar
    35   15   38 1
    36   16   17 ar
    37   16   20 1
    38   17   18 ar
    39   17   39 1
    40   18   19 1
    41   20   40 1
    42   20   41 1
@<TRIPOS>MOLECULE
ZINC44082595
   30    31     0     0     0
SMALL
USER_CHARGES

@<TRIPOS>ATOM
      1 C1         -0.0316    1.4269    0.0104 C.ar      1 <0>        -0.1738
      2 C2          1.1752    2.1100    0.0032 C.ar      1 <0>        -0.0538
      3 C3          2.3499    1.3741   -0.0144 C.ar      1 <0>        -0.1677
      4 C4          2.2797   -0.0064   -0.0241 C.ar      1 <0>         0.1216
      5 N1          1.1140   -0.6225   -0.0173 N.ar      1 <0>        -0.4846
      6 C5         -0.0233    0.0452   -0.0001 C.ar      1 <0>         0.1091
      7 C6          3.6864    2.0702   -0.0234 C.3       1 <0>         0.1850
      8 N2          4.1339    2.2858    1.3548 N.am      1 <0>        -0.7351
      9 C7          5.3117    2.8962    1.5932 C.2       1 <0>         0.7084
     10 O1          6.0028    3.2679    0.6644 O.2       1 <0>        -0.5656
     11 N3          5.7234    3.0945    2.8611 N.am      1 <0>        -0.6832
     12 C8          6.9878    3.6429    3.1090 C.ar      1 <0>         0.1962
     13 C9          7.5120    4.5990    2.2494 C.ar      1 <0>        -0.1053
     14 C10         8.7593    5.1383    2.4962 C.ar      1 <0>        -0.0589
     15 C11         9.4871    4.7267    3.5984 C.ar      1 <0>        -0.1100
     16 C12         8.9682    3.7745    4.4570 C.ar      1 <0>        -0.0557
     17 C13         7.7179    3.2356    4.2188 C.ar      1 <0>        -0.0655
     18 Cl1         7.0635    2.0462    5.3009 Cl        1 <0>        -0.0537
     19 I1         11.3792    5.5469    3.9674 I         1 <0>        -0.0255
     20 H1         -0.9661    1.9680    0.0286 H         1 <0>         0.1394
     21 H2          1.1993    3.1897    0.0108 H         1 <0>         0.1376
     22 H3          3.1902   -0.5870   -0.0379 H         1 <0>         0.1577
     23 H4         -0.9589   -0.4943    0.0058 H         1 <0>         0.1593
     24 H5          4.4143    1.4525   -0.5493 H         1 <0>         0.0842
     25 H6          3.5922    3.0311   -0.5293 H         1 <0>         0.0826
     26 H7          3.5826    1.9893    2.0958 H         1 <0>         0.4006
     27 H8          5.1439    2.8573    3.6020 H         1 <0>         0.4116
     28 H9          6.9450    4.9204    1.3883 H         1 <0>         0.1599
     29 H10         9.1672    5.8819    1.8277 H         1 <0>         0.1406
     30 H11         9.5388    3.4549    5.3165 H         1 <0>         0.1445
@<TRIPOS>BOND
     1    1    6 ar
     2    1    2 ar
     3    1   20 1
     4    2    3 ar
     5    2   21 1
     6    3    4 ar
     7    3    7 1
     8    4    5 ar
     9    4   22 1
    10    5    6 ar
    11    6   23 1
    12    7    8 1
    13    7   24 1
    14    7   25 1
    15    8    9 am
    16    8   26 1
    17    9   10 2
    18    9   11 am
    19   11   12 1
    20   11   27 1
    21   12   17 ar
    22   12   13 ar
    23   13   14 ar
    24   13   28 1
    25   14   15 ar
    26   14   29 1
    27   15   16 ar
    28   15   19 1
    29   16   17 ar
    30   16   30 1
    31   17   18 1
@<TRIPOS>MOLECULE
ZINC53107267
   44    46     0     0     0
SMALL
USER_CHARGES

@<TRIPOS>ATOM
      1 C1         -1.0707    1.9267    0.1834 C.3       1 <0>        -0.1540
      2 C2         -1.2304    0.4358   -0.1210 C.3       1 <0>        -0.0856
      3 H1         -2.2510    0.1263    0.1041 H         1 <0>         0.0727
      4 C3         -0.9353    0.1830   -1.6008 C.3       1 <0>        -0.1165
      5 C4          0.4972    0.6175   -1.9167 C.3       1 <0>        -0.1243
      6 C5          1.4752   -0.1861   -1.0572 C.3       1 <0>        -0.1212
      7 C6          1.1802    0.0667    0.4226 C.3       1 <0>         0.1877
      8 C7         -0.2524   -0.3678    0.7386 C.3       1 <0>        -0.1277
      9 C8          2.1581   -0.7368    1.2822 C.3       1 <0>         0.0591
     10 O1          3.4883   -0.2657    1.0571 O.3       1 <0>        -0.5705
     11 N1          1.3330    1.4943    0.7141 N.am      1 <0>        -0.7109
     12 C9          1.2032    1.9415    1.9788 C.2       1 <0>         0.5992
     13 O2          0.8750    1.1745    2.8648 O.2       1 <0>        -0.5259
     14 C10         1.4575    3.3527    2.2874 C.2       1 <0>        -0.0394
     15 C11         1.2308    3.9762    3.4962 C.2       1 <0>        -0.0798
     16 C12         1.6121    5.3137    3.3468 C.2       1 <0>        -0.1767
     17 C13         2.0554    5.4800    2.0771 C.2       1 <0>         0.0576
     18 N2          1.9715    4.2941    1.4248 N.pl3     1 <0>        -0.3904
     19 C14         2.3607    4.0554    0.0328 C.3       1 <0>         0.0259
     20 C15         2.9284    5.2379   -0.7548 C.3       1 <0>        -0.1607
     21 C16         1.5210    4.7207   -1.0595 C.3       1 <0>        -0.1755
     22 Br1         1.5246    6.6520    4.6799 Br        1 <0>        -0.0227
     23 H2         -0.1387    2.2884   -0.2508 H         1 <0>         0.0643
     24 H3         -1.9086    2.4767   -0.2449 H         1 <0>         0.0454
     25 H4         -1.0512    2.0771    1.2628 H         1 <0>         0.0533
     26 H5         -1.0491   -0.8792   -1.8176 H         1 <0>         0.0651
     27 H6         -1.6321    0.7554   -2.2132 H         1 <0>         0.0641
     28 H7          0.7074    0.4373   -2.9710 H         1 <0>         0.0687
     29 H8          0.6110    1.6796   -1.6999 H         1 <0>         0.0596
     30 H9          1.3615   -1.2482   -1.2740 H         1 <0>         0.0811
     31 H10         2.4958    0.1234   -1.2823 H         1 <0>         0.0759
     32 H11        -0.4626   -0.1876    1.7928 H         1 <0>         0.0885
     33 H12        -0.3661   -1.4299    0.5217 H         1 <0>         0.0727
     34 H13         1.9024   -0.6141    2.3346 H         1 <0>         0.0726
     35 H14         2.0959   -1.7914    1.0138 H         1 <0>         0.0524
     36 H15         4.1626   -0.7311    1.5708 H         1 <0>         0.3804
     37 H16         1.5276    2.1176   -0.0032 H         1 <0>         0.3977
     38 H17         0.8336    3.5181    4.3900 H         1 <0>         0.1582
     39 H18         2.4196    6.4049    1.6549 H         1 <0>         0.1769
     40 H19         2.7692    3.0671   -0.1783 H         1 <0>         0.1472
     41 H20         3.0123    6.1935   -0.2373 H         1 <0>         0.1101
     42 H21         3.7106    5.0277   -1.4842 H         1 <0>         0.1191
     43 H22         1.3774    4.1703   -1.9894 H         1 <0>         0.1161
     44 H23         0.6791    5.3361   -0.7424 H         1 <0>         0.1103
@<TRIPOS>BOND
     1    1    2 1
     2    1   23 1
     3    1   24 1
     4    1   25 1
     5    2    3 1
     6    2    8 1
     7    2    4 1
     8    4    5 1
     9    4   26 1
    10    4   27 1
    11    5    6 1
    12    5   28 1
    13    5   29 1
    14    6    7 1
    15    6   30 1
    16    6   31 1
    17    7    8 1
    18    7    9 1
    19    7   11 1
    20    8   32 1
    21    8   33 1
    22    9   10 1
    23    9   34 1
    24    9   35 1
    25   10   36 1
    26   11   12 am
    27   11   37 1
    28   12   13 2
    29   12   14 1
    30   14   18 1
    31   14   15 2
    32   15   16 1
    33   15   38 1
    34   16   17 2
    35   16   22 1
    36   17   18 1
    37   17   39 1
    38   18   19 1
    39   19   21 1
    40   19   20 1
    41   19   40 1
    42   20   21 1
    43   20   41 1
    44   20   42 1
    45   21   43 1
    46   21   44 1
@<TRIPOS>MOLECULE
ZINC00945458
   41    44     0     0     0
SMALL
USER_CHARGES
1-(2,5-diphenylthiazol-4-yl)-5-methyl-4-thioxo-pyrimidin-2-one
@<TRIPOS>ATOM
      1 C1          0.5968    5.8517   -2.8734 C.3       1 <0>        -0.1033
      2 C2          1.2117    5.5426   -1.5327 C.2       1 <0>        -0.1927
      3 C3          2.2544    4.6894   -1.4386 C.2       1 <0>         0.1930
      4 N1          2.7986    4.4163   -0.2098 N.am      1 <0>        -0.4518
      5 C4          2.3093    4.9991    0.8999 C.2       1 <0>         0.6839
      6 O1          2.8088    4.7471    1.9794 O.2       1 <0>        -0.5040
      7 N2          1.2743    5.8567    0.8315 N.am      1 <0>        -0.5984
      8 H1          0.9231    6.2804    1.6664 H         1 <0>         0.4547
      9 C5          0.7087    6.1472   -0.3574 C.2       1 <0>         0.3473
     10 S1         -0.6071    7.2391   -0.4436 S.2       1 <0>        -0.4943
     11 C6          3.8763    3.5277   -0.1098 C.2       1 <0>         0.2586
     12 C7          3.6556    2.1587   -0.0204 C.2       1 <0>        -0.1003
     13 S2          5.3378    1.5612    0.0873 S.3       1 <0>         0.1059
     14 C8          6.1456    3.1532   -0.0042 C.2       1 <0>         0.1712
     15 N3          5.1094    3.9753   -0.0986 N.2       1 <0>        -0.4882
     16 C9          7.5886    3.4702    0.0240 C.ar      1 <0>        -0.0255
     17 C10         8.0169    4.7962   -0.0604 C.ar      1 <0>        -0.0652
     18 C11         9.3653    5.0856   -0.0277 C.ar      1 <0>        -0.1191
     19 C12        10.2929    4.0643    0.0764 C.ar      1 <0>        -0.0925
     20 C13         9.8754    2.7475    0.1552 C.ar      1 <0>        -0.1163
     21 C14         8.5299    2.4445    0.1293 C.ar      1 <0>        -0.0881
     22 C15         2.3852    1.4069   -0.0107 C.ar      1 <0>        -0.0170
     23 C16         1.1665    2.0888    0.0196 C.ar      1 <0>        -0.0973
     24 C17        -0.0166    1.3799    0.0285 C.ar      1 <0>        -0.1095
     25 C18         0.0019   -0.0036    0.0081 C.ar      1 <0>        -0.0974
     26 C19         1.2055   -0.6857   -0.0214 C.ar      1 <0>        -0.1102
     27 C20         2.3963    0.0103   -0.0312 C.ar      1 <0>        -0.0933
     28 H2         -0.2218    6.5595   -2.7432 H         1 <0>         0.1076
     29 H3          1.3522    6.2862   -3.5281 H         1 <0>         0.0760
     30 H4          0.2153    4.9328   -3.3186 H         1 <0>         0.0764
     31 H5          2.6548    4.2215   -2.3258 H         1 <0>         0.1864
     32 H6          7.2941    5.5940   -0.1469 H         1 <0>         0.1350
     33 H7          9.6979    6.1114   -0.0880 H         1 <0>         0.1338
     34 H8         11.3476    4.2960    0.0967 H         1 <0>         0.1318
     35 H9         10.6046    1.9550    0.2367 H         1 <0>         0.1348
     36 H10         8.2053    1.4163    0.1909 H         1 <0>         0.1281
     37 H11         1.1507    3.1686    0.0352 H         1 <0>         0.1110
     38 H12        -0.9597    1.9058    0.0470 H         1 <0>         0.1323
     39 H13        -0.9275   -0.5537    0.0156 H         1 <0>         0.1329
     40 H14         1.2125   -1.7656   -0.0372 H         1 <0>         0.1349
     41 H15         3.3350   -0.5233   -0.0542 H         1 <0>         0.1289
@<TRIPOS>BOND
     1    1    2 1
     2    1   28 1
     3    1   29 1
     4    1   30 1
     5    2    9 1
     6    2    3 2
     7    3    4 1
     8    3   31 1
     9    4    5 am
    10    4   11 1
    11    5    6 2
    12    5    7 am
    13    7    8 1
    14    7    9 1
    15    9   10 2
    16   11   15 1
    17   11   12 2
    18   12   13 1
    19   12   22 1
    20   13   14 1
    21   14   15 2
    22   14   16 1
    23   16   21 ar
    24   16   17 ar
    25   17   18 ar
    26   17   32 1
    27   18   19 ar
    28   18   33 1
    29   19   20 ar
    30   19   34 1
    31   20   21 ar
    32   20   35 1
    33   21   36 1
    34   22   27 ar
    35   22   23 ar
    36   23   24 ar
    37   23   37 1
    38   24   25 ar
    39   24   38 1
    40   25   26 ar
    41   25   39 1
    42   26   27 ar
    43   26   40 1
    44   27   41 1
@<TRIPOS>MOLECULE
ZINC05329609
   29    30     0     0     0
SMALL
USER_CHARGES
3,4-dibromo-6-methoxy-2-[(E)-3-pyridyliminomethyl]phenol
@<TRIPOS>ATOM
      1 C1         -0.0127    1.0858    0.0080 C.3       1 <0>         0.0188
      2 O1         -0.6816    1.5467    1.1837 O.3       1 <0>        -0.2962
      3 C2         -1.9760    1.1627    1.3484 C.ar      1 <0>         0.1197
      4 C3         -2.5880    0.3648    0.3950 C.ar      1 <0>        -0.1476
      5 C4         -3.9043   -0.0358    0.5572 C.ar      1 <0>        -0.0481
      6 C5         -4.6230    0.3652    1.6647 C.ar      1 <0>        -0.0590
      7 C6         -4.0196    1.1761    2.6334 C.ar      1 <0>        -0.0362
      8 C7         -2.6855    1.5756    2.4699 C.ar      1 <0>         0.1303
      9 O2         -2.0894    2.3619    3.4032 O.3       1 <0>        -0.4724
     10 C8         -4.7802    1.6060    3.8156 C.2       1 <0>         0.1878
     11 N1         -6.0206    1.2324    3.9640 N.2       1 <0>        -0.4333
     12 C9         -6.7288    1.6327    5.0648 C.ar      1 <0>         0.0262
     13 C10        -8.0371    2.1157    4.9332 C.ar      1 <0>        -0.0565
     14 C11        -8.7110    2.5030    6.0775 C.ar      1 <0>        -0.1584
     15 C12        -8.0741    2.4118    7.3024 C.ar      1 <0>         0.0932
     16 N2         -6.8393    1.9577    7.3963 N.ar      1 <0>        -0.4713
     17 C13        -6.1576    1.5720    6.3375 C.ar      1 <0>         0.0768
     18 Br1        -6.4217   -0.1796    1.8736 Br        1 <0>         0.0276
     19 Br2        -4.7220   -1.1316   -0.7490 Br        1 <0>        -0.0104
     20 H1          0.0021   -0.0041    0.0020 H         1 <0>         0.0618
     21 H2          1.0099    1.4631    0.0003 H         1 <0>         0.1095
     22 H3         -0.5399    1.4469   -0.8751 H         1 <0>         0.0613
     23 H4         -2.0346    0.0501   -0.4773 H         1 <0>         0.1544
     24 H5         -2.1855    3.3099    3.2383 H         1 <0>         0.3979
     25 H6         -4.3117    2.2313    4.5612 H         1 <0>         0.1266
     26 H7         -8.5087    2.1807    3.9638 H         1 <0>         0.1407
     27 H8         -9.7222    2.8770    6.0149 H         1 <0>         0.1421
     28 H9         -8.5967    2.7179    8.1967 H         1 <0>         0.1596
     29 H10        -5.1484    1.2054    6.4547 H         1 <0>         0.1553
@<TRIPOS>BOND
     1    1    2 1
     2    1   20 1
     3    1   21 1
     4    1   22 1
     5    2    3 1
     6    3    8 ar
     7    3    4 ar
     8    4    5 ar
     9    4   23 1
    10    5    6 ar
    11    5   19 1
    12    6    7 ar
    13    6   18 1
    14    7    8 ar
    15    7   10 1
    16    8    9 1
    17    9   24 1
    18   10   11 2
    19   10   25 1
    20   11   12 1
    21   12   17 ar
    22   12   13 ar
    23   13   14 ar
    24   13   26 1
    25   14   15 ar
    26   14   27 1
    27   15   16 ar
    28   15   28 1
    29   16   17 ar
    30   17   29 1
@<TRIPOS>MOLECULE
ZINC36982777
   35    37     0     0     0
SMALL
USER_CHARGES

@<TRIPOS>ATOM
      1 C1         -0.0167    1.3775    0.0096 C.ar      1 <0>        -0.1156
      2 C2          1.1831    2.0715    0.0019 C.ar      1 <0>        -0.1477
      3 C3          2.3687    1.3427   -0.0133 C.ar      1 <0>         0.1878
      4 C4          2.3062   -0.0467   -0.0202 C.ar      1 <0>         0.1019
      5 N1          1.1427   -0.6669   -0.0124 N.ar      1 <0>        -0.4376
      6 C5          0.0021   -0.0041    0.0020 C.ar      1 <0>         0.0562
      7 Cl1         3.7742   -0.9732   -0.0398 Cl        1 <0>        -0.0353
      8 N2          3.6037    1.9973   -0.0221 N.pl3     1 <0>        -0.7330
      9 C6          3.6568    3.4613   -0.0152 C.3       1 <0>         0.1682
     10 C7          5.0948    3.9119   -0.0270 C.ar      1 <0>        -0.0999
     11 C8          5.7662    4.1065    1.1673 C.ar      1 <0>        -0.0809
     12 C9          7.0875    4.5197    1.1527 C.ar      1 <0>         0.0728
     13 C10         7.7345    4.7379   -0.0553 C.ar      1 <0>         0.1046
     14 C11         7.0599    4.5426   -1.2490 C.ar      1 <0>        -0.0957
     15 C12         5.7403    4.1239   -1.2305 C.ar      1 <0>        -0.0633
     16 Br1         7.9392    4.8399   -2.8965 Br        1 <0>        -0.0203
     17 O1          9.0373    5.1447   -0.0586 O.3       1 <0>        -0.3072
     18 C13         9.2806    6.4652    0.4305 C.3       1 <0>         0.0602
     19 C14         9.4008    6.4653    1.9464 C.3       1 <0>        -0.1896
     20 C15         8.1020    6.0680    2.6302 C.3       1 <0>         0.0584
     21 O2          7.7611    4.7145    2.3234 O.3       1 <0>        -0.3129
     22 H1         -0.9557    1.9107    0.0259 H         1 <0>         0.1432
     23 H2          1.1975    3.1514    0.0072 H         1 <0>         0.1429
     24 H3         -0.9303   -0.5491    0.0084 H         1 <0>         0.1632
     25 H4          4.4256    1.4822   -0.0327 H         1 <0>         0.4083
     26 H5          3.1478    3.8475   -0.8983 H         1 <0>         0.0794
     27 H6          3.1652    3.8385    0.8815 H         1 <0>         0.0789
     28 H7          5.2615    3.9370    2.1069 H         1 <0>         0.1451
     29 H8          5.2125    3.9664   -2.1595 H         1 <0>         0.1451
     30 H9         10.2065    6.8434   -0.0028 H         1 <0>         0.1110
     31 H10         8.4561    7.1145    0.1360 H         1 <0>         0.0597
     32 H11        10.1825    5.7641    2.2386 H         1 <0>         0.0874
     33 H12         9.6832    7.4644    2.2781 H         1 <0>         0.0954
     34 H13         8.2177    6.1732    3.7089 H         1 <0>         0.1095
     35 H14         7.3018    6.7254    2.2901 H         1 <0>         0.0597
@<TRIPOS>BOND
     1    1    6 ar
     2    1    2 ar
     3    1   22 1
     4    2    3 ar
     5    2   23 1
     6    3    4 ar
     7    3    8 1
     8    4    5 ar
     9    4    7 1
    10    5    6 ar
    11    6   24 1
    12    8    9 1
    13    8   25 1
    14    9   10 1
    15    9   26 1
    16    9   27 1
    17   10   15 ar
    18   10   11 ar
    19   11   12 ar
    20   11   28 1
    21   12   21 1
    22   12   13 ar
    23   13   14 ar
    24   13   17 1
    25   14   15 ar
    26   14   16 1
    27   15   29 1
    28   17   18 1
    29   18   19 1
    30   18   30 1
    31   18   31 1
    32   19   20 1
    33   19   32 1
    34   19   33 1
    35   20   21 1
    36   20   34 1
    37   20   35 1
@<TRIPOS>MOLECULE
ZINC41968838
   29    30     0     0     0
SMALL
USER_CHARGES

@<TRIPOS>ATOM
      1 C1         -0.0341    1.5387   -0.0009 C.3       1 <0>        -0.1645
      2 C2         -0.0026    0.0090   -0.0052 C.3       1 <0>         0.1496
      3 H1          0.5298   -0.3459    0.8772 H         1 <0>         0.1344
      4 C3         -1.4126   -0.5226    0.0111 C.2       1 <0>         0.5038
      5 O1         -1.8062   -1.2256   -0.8955 O.2       1 <0>        -0.4877
      6 N1         -2.2363   -0.2169    1.0331 N.am      1 <0>        -0.6647
      7 C4         -3.5785   -0.6128    0.9930 C.ar      1 <0>         0.1802
      8 C5         -4.2006   -0.8397   -0.2274 C.ar      1 <0>        -0.1164
      9 C6         -5.5247   -1.2307   -0.2641 C.ar      1 <0>        -0.0551
     10 C7         -6.2319   -1.3962    0.9134 C.ar      1 <0>        -0.1112
     11 C8         -5.6157   -1.1712    2.1310 C.ar      1 <0>        -0.0522
     12 C9         -4.2891   -0.7852    2.1745 C.ar      1 <0>        -0.0675
     13 Cl1        -3.5139   -0.5093    3.7031 Cl        1 <0>        -0.0512
     14 I1         -8.2406   -1.9882    0.8520 I         1 <0>        -0.0225
     15 N2          0.6829   -0.4619   -1.2113 N.pl3     1 <0>        -0.3633
     16 C10         0.6412    0.1219   -2.4273 C.2       1 <0>         0.0649
     17 C11         1.4031   -0.6175   -3.2662 C.2       1 <0>        -0.2673
     18 C12         1.9285   -1.6899   -2.5379 C.2       1 <0>         0.0536
     19 N3          1.5023   -1.5942   -1.3046 N.2       1 <0>        -0.2904
     20 H2          0.9857    1.9232   -0.0127 H         1 <0>         0.0887
     21 H3         -0.5665    1.8936   -0.8833 H         1 <0>         0.0764
     22 H4         -0.5442    1.8890    0.8965 H         1 <0>         0.0895
     23 H5         -1.8991    0.2776    1.7965 H         1 <0>         0.4170
     24 H6         -3.6497   -0.7101   -1.1472 H         1 <0>         0.1612
     25 H7         -6.0088   -1.4072   -1.2133 H         1 <0>         0.1414
     26 H8         -6.1703   -1.3008    3.0486 H         1 <0>         0.1460
     27 H9          0.0968    1.0184   -2.6848 H         1 <0>         0.1711
     28 H10         1.5747   -0.4157   -4.3132 H         1 <0>         0.1503
     29 H11         2.5779   -2.4609   -2.9255 H         1 <0>         0.1859
@<TRIPOS>BOND
     1    1    2 1
     2    1   20 1
     3    1   21 1
     4    1   22 1
     5    2    3 1
     6    2    4 1
     7    2   15 1
     8    4    5 2
     9    4    6 am
    10    6    7 1
    11    6   23 1
    12    7   12 ar
    13    7    8 ar
    14    8    9 ar
    15    8   24 1
    16    9   10 ar
    17    9   25 1
    18   10   11 ar
    19   10   14 1
    20   11   12 ar
    21   11   26 1
    22   12   13 1
    23   15   19 1
    24   15   16 1
    25   16   17 2
    26   16   27 1
    27   17   18 1
    28   17   28 1
    29   18   19 2
    30   18   29 1
@<TRIPOS>MOLECULE
ZINC54949568
   43    45     0     0     0
SMALL
USER_CHARGES

@<TRIPOS>ATOM
      1 C1          0.1211    1.5740    0.0179 C.3       1 <0>        -0.0749
      2 C2          0.0640    0.0708   -0.0731 C.2       1 <0>        -0.1266
      3 C3         -1.0156   -0.7349   -0.2237 C.2       1 <0>        -0.1684
      4 C4         -0.8278   -2.1030   -0.2840 C.2       1 <0>        -0.1257
      5 C5          0.4304   -2.5985   -0.1907 C.2       1 <0>        -0.1784
      6 S1          1.4015   -1.1104   -0.0183 S.3       1 <0>         0.0459
      7 C6          0.8907   -4.0330   -0.2284 C.3       1 <0>         0.2318
      8 H1          0.1206   -4.6496   -0.6920 H         1 <0>         0.1165
      9 C7          1.1472   -4.5240    1.1977 C.3       1 <0>        -0.1622
     10 N1          2.1275   -4.1287   -1.0077 N.am      1 <0>        -0.6901
     11 C8          2.4593   -5.2903   -1.6054 C.2       1 <0>         0.5208
     12 O1          1.7334   -6.2569   -1.4980 O.2       1 <0>        -0.5014
     13 C9          3.7201   -5.3878   -2.3998 C.2       1 <0>         0.5073
     14 O2          4.3860   -4.3941   -2.6058 O.2       1 <0>        -0.4916
     15 N2          4.1186   -6.5792   -2.8879 N.am      1 <0>        -0.5170
     16 C10         3.3341   -7.7936   -2.6261 C.3       1 <0>         0.0586
     17 C11         4.3129   -8.9085   -2.2350 C.3       1 <0>        -0.1370
     18 C12         5.2358   -9.1932   -3.4197 C.3       1 <0>        -0.0823
     19 C13         5.8533   -7.9163   -3.9260 C.ar      1 <0>        -0.0864
     20 C14         5.2843   -6.6792   -3.6579 C.ar      1 <0>         0.1648
     21 C15         5.8724   -5.5187   -4.1481 C.ar      1 <0>        -0.1625
     22 C16         7.0253   -5.5943   -4.9071 C.ar      1 <0>         0.0875
     23 C17         7.5932   -6.8302   -5.1782 C.ar      1 <0>         0.0534
     24 C18         7.0120   -7.9869   -4.6813 C.ar      1 <0>        -0.1058
     25 F1          8.7207   -6.9068   -5.9184 F         1 <0>        -0.1273
     26 F2          7.5972   -4.4670   -5.3840 F         1 <0>        -0.1227
     27 H2          1.1575    1.8921    0.1311 H         1 <0>         0.0745
     28 H3         -0.2953    2.0090   -0.8907 H         1 <0>         0.0838
     29 H4         -0.4577    1.9081    0.8790 H         1 <0>         0.0841
     30 H5         -2.0077   -0.3142   -0.2952 H         1 <0>         0.1369
     31 H6         -1.6710   -2.7672   -0.4033 H         1 <0>         0.1364
     32 H7          0.2269   -4.4528    1.7776 H         1 <0>         0.0784
     33 H8          1.4801   -5.5616    1.1705 H         1 <0>         0.0726
     34 H9          1.9173   -3.9074    1.6613 H         1 <0>         0.0648
     35 H10         2.7077   -3.3561   -1.0936 H         1 <0>         0.4150
     36 H11         2.6351   -7.6127   -1.8095 H         1 <0>         0.1541
     37 H12         2.7873   -8.0806   -3.5243 H         1 <0>         0.0833
     38 H13         4.9063   -8.5896   -1.3782 H         1 <0>         0.0742
     39 H14         3.7563   -9.8105   -1.9807 H         1 <0>         0.0943
     40 H15         6.0261   -9.8746   -3.1044 H         1 <0>         0.0888
     41 H16         4.6603   -9.6568   -4.2209 H         1 <0>         0.0878
     42 H17         5.4284   -4.5574   -3.9355 H         1 <0>         0.1919
     43 H18         7.4569   -8.9477   -4.8941 H         1 <0>         0.1526
@<TRIPOS>BOND
     1    1    2 1
     2    1   27 1
     3    1   28 1
     4    1   29 1
     5    2    6 1
     6    2    3 2
     7    3    4 1
     8    3   30 1
     9    4    5 2
    10    4   31 1
    11    5    6 1
    12    5    7 1
    13    7    8 1
    14    7    9 1
    15    7   10 1
    16    9   32 1
    17    9   33 1
    18    9   34 1
    19   10   11 am
    20   10   35 1
    21   11   12 2
    22   11   13 1
    23   13   14 2
    24   13   15 am
    25   15   20 1
    26   15   16 1
    27   16   17 1
    28   16   36 1
    29   16   37 1
    30   17   18 1
    31   17   38 1
    32   17   39 1
    33   18   19 1
    34   18   40 1
    35   18   41 1
    36   19   24 ar
    37   19   20 ar
    38   20   21 ar
    39   21   22 ar
    40   21   42 1
    41   22   23 ar
    42   22   26 1
    43   23   24 ar
    44   23   25 1
    45   24   43 1
@<TRIPOS>MOLECULE
ZINC06537856
   27    29     0     0     0
SMALL
USER_CHARGES
3-amino-5-phenyl-2-thioxo-1H-thieno[3,2-e]pyrimidin-4-one
@<TRIPOS>ATOM
      1 C1          2.6482   -4.3360   -0.0457 C.ar      1 <0>        -0.1071
      2 C2          1.7097   -3.9263    0.8843 C.ar      1 <0>        -0.1257
      3 C3          1.2762   -2.6163    0.9002 C.ar      1 <0>        -0.0989
      4 C4          1.7861   -1.7050   -0.0237 C.ar      1 <0>        -0.0549
      5 C5          2.7279   -2.1250   -0.9620 C.ar      1 <0>        -0.0622
      6 C6          3.1577   -3.4363   -0.9648 C.ar      1 <0>        -0.1202
      7 C7          1.3242   -0.2966   -0.0122 C.2       1 <0>        -0.0023
      8 C8          0.0021   -0.0041    0.0020 C.2       1 <0>        -0.1714
      9 S1         -0.0221    1.7785    0.0118 S.3       1 <0>         0.1900
     10 C9          1.7251    2.0804   -0.0032 C.2       1 <0>         0.0699
     11 C10         2.2856    0.8016   -0.0155 C.2       1 <0>        -0.2045
     12 C11         3.7629    0.7541   -0.0303 C.2       1 <0>         0.5629
     13 O1          4.3442   -0.3157   -0.0415 O.2       1 <0>        -0.4490
     14 N1          4.4578    1.9053   -0.0311 N.am      1 <0>        -0.3373
     15 C12         3.8485    3.1022   -0.0188 C.2       1 <0>         0.4991
     16 S2          4.7969    4.5275   -0.0201 S.2       1 <0>        -0.5208
     17 N2          2.5047    3.2023   -0.0050 N.pl3     1 <0>        -0.5316
     18 H1          2.0876    4.0780    0.0040 H         1 <0>         0.4541
     19 N3          5.8228    1.8560   -0.0452 N.3       1 <0>        -0.5805
     20 H2          2.9848   -5.3622   -0.0541 H         1 <0>         0.1235
     21 H3          1.3157   -4.6330    1.5997 H         1 <0>         0.1252
     22 H4          0.5437   -2.2975    1.6269 H         1 <0>         0.1239
     23 H5          3.1233   -1.4245   -1.6827 H         1 <0>         0.1182
     24 H6          3.8899   -3.7619   -1.6888 H         1 <0>         0.1242
     25 H7         -0.8354   -0.6860    0.0067 H         1 <0>         0.2090
     26 H8          6.2182    2.7844   -0.0446 H         1 <0>         0.3969
     27 H9          6.1731    1.3133    0.7299 H         1 <0>         0.3693
@<TRIPOS>BOND
     1    1    6 ar
     2    1    2 ar
     3    1   20 1
     4    2    3 ar
     5    2   21 1
     6    3    4 ar
     7    3   22 1
     8    4    5 ar
     9    4    7 1
    10    5    6 ar
    11    5   23 1
    12    6   24 1
    13    7   11 1
    14    7    8 2
    15    8    9 1
    16    8   25 1
    17    9   10 1
    18   10   17 1
    19   10   11 2
    20   11   12 1
    21   12   13 2
    22   12   14 am
    23   14   15 1
    24   14   19 1
    25   15   16 2
    26   15   17 1
    27   17   18 1
    28   19   26 1
    29   19   27 1
@<TRIPOS>MOLECULE
ZINC36737625
   27    28     0     0     0
SMALL
USER_CHARGES

@<TRIPOS>ATOM
      1 C1          0.0024    1.5043    0.0092 C.3       1 <0>        -0.0932
      2 C2          0.0258   -0.0025    0.0014 C.2       1 <0>         0.1590
      3 C3          0.0226   -0.7208   -1.1741 C.2       1 <0>        -0.2898
      4 S1          0.0564   -2.3890   -0.5373 S.3       1 <0>         0.1524
      5 C4          0.0706   -2.0101    1.1026 C.2       1 <0>         0.0593
      6 N1          0.0558   -0.6965    1.1119 N.2       1 <0>        -0.5209
      7 C5         -0.0024   -0.2475   -2.5619 C.2       1 <0>         0.6180
      8 O1         -0.0246    0.9463   -2.7974 O.2       1 <0>        -0.4963
      9 N2         -0.0009   -1.1346   -3.5766 N.am      1 <0>        -0.6643
     10 C6         -0.1197   -0.6874   -4.8968 C.ar      1 <0>         0.2040
     11 C7          0.4524    0.5185   -5.2758 C.ar      1 <0>        -0.1902
     12 C8          0.3328    0.9585   -6.5864 C.ar      1 <0>         0.2411
     13 C9         -0.3592    0.1908   -7.5153 C.ar      1 <0>        -0.1997
     14 C10        -0.9284   -1.0093   -7.1353 C.ar      1 <0>        -0.0398
     15 C11        -0.8062   -1.4535   -5.8318 C.ar      1 <0>        -0.1207
     16 Cl1        -1.5169   -2.9656   -5.3606 Cl        1 <0>        -0.0728
     17 N3          0.9072    2.1726   -6.9717 N.pl3     1 <0>        -0.8693
     18 H1          1.0241    1.8837   -0.0061 H         1 <0>         0.0842
     19 H2         -0.5320    1.8639   -0.8702 H         1 <0>         0.0964
     20 H3         -0.5020    1.8552    0.9095 H         1 <0>         0.0784
     21 H4          0.0909   -2.6852    1.9453 H         1 <0>         0.2284
     22 H5          0.0827   -2.0831   -3.3914 H         1 <0>         0.4129
     23 H6          0.9895    1.1138   -4.5522 H         1 <0>         0.1484
     24 H7         -0.4525    0.5330   -8.5355 H         1 <0>         0.1319
     25 H8         -1.4663   -1.6038   -7.8590 H         1 <0>         0.1384
     26 H9          1.3899    2.7083   -6.3228 H         1 <0>         0.4022
     27 H10         0.8234    2.4798   -7.8879 H         1 <0>         0.4020
@<TRIPOS>BOND
     1    1    2 1
     2    1   18 1
     3    1   19 1
     4    1   20 1
     5    2    6 1
     6    2    3 2
     7    3    4 1
     8    3    7 1
     9    4    5 1
    10    5    6 2
    11    5   21 1
    12    7    8 2
    13    7    9 am
    14    9   10 1
    15    9   22 1
    16   10   15 ar
    17   10   11 ar
    18   11   12 ar
    19   11   23 1
    20   12   13 ar
    21   12   17 1
    22   13   14 ar
    23   13   24 1
    24   14   15 ar
    25   14   25 1
    26   15   16 1
    27   17   26 1
    28   17   27 1
@<TRIPOS>MOLECULE
ZINC47913077
   25    26     0     0     0
SMALL
USER_CHARGES

@<TRIPOS>ATOM
      1 C1         -0.1227    1.1261   -0.3922 C.3       1 <0>        -0.1250
      2 C2         -0.0694   -0.3654   -0.1832 C.ar      1 <0>        -0.1053
      3 C3         -0.0708   -1.2059   -1.2560 C.ar      1 <0>        -0.0261
      4 C4         -0.0220   -2.5866   -1.0854 C.ar      1 <0>        -0.1003
      5 C5          0.0286   -3.1334    0.1638 C.ar      1 <0>        -0.0293
      6 C6          0.0319   -2.2960    1.2871 C.ar      1 <0>        -0.1335
      7 C7         -0.0123   -0.8920    1.1166 C.ar      1 <0>         0.1861
      8 N1         -0.0053   -0.0807    2.1849 N.ar      1 <0>        -0.5218
      9 C8          0.0469   -0.5427    3.4067 C.ar      1 <0>         0.2424
     10 C9          0.0995   -1.9227    3.6719 C.ar      1 <0>        -0.2671
     11 C10         0.0832   -2.8288    2.5984 C.ar      1 <0>         0.3776
     12 N2          0.1316   -4.1865    2.8130 N.pl3     1 <0>        -0.7580
     13 C11         0.1580   -2.4111    5.0548 C.2       1 <0>         0.5403
     14 O1          0.2751   -1.6180    5.9795 O.co2     1 <0>        -0.6502
     15 O2          0.0896   -3.6117    5.2831 O.co2     1 <0>        -0.6657
     16 Br1        -0.0265   -3.7169   -2.6014 Br        1 <0>        -0.0158
     17 H1          0.8911    1.5179   -0.4746 H         1 <0>         0.0902
     18 H2         -0.6725    1.3453   -1.3075 H         1 <0>         0.0927
     19 H3         -0.6253    1.5938    0.4544 H         1 <0>         0.0699
     20 H4         -0.1108   -0.7945   -2.2537 H         1 <0>         0.1554
     21 H5          0.0655   -4.2058    0.2860 H         1 <0>         0.1516
     22 H6          0.0501    0.1528    4.2330 H         1 <0>         0.2102
     23 H7          0.2193   -4.7935    2.0615 H         1 <0>         0.4037
     24 H8          0.0780   -4.5370    3.7159 H         1 <0>         0.4426
     25 H9         -0.0397    0.8787    2.0464 H         1 <0>         0.4354
@<TRIPOS>BOND
     1    1    2 1
     2    1   17 1
     3    1   18 1
     4    1   19 1
     5    2    7 ar
     6    2    3 ar
     7    3    4 ar
     8    3   20 1
     9    4    5 ar
    10    4   16 1
    11    5    6 ar
    12    5   21 1
    13    6   11 ar
    14    6    7 ar
    15    7    8 ar
    16    8    9 ar
    17    8   25 1
    18    9   10 ar
    19    9   22 1
    20   10   11 ar
    21   10   13 1
    22   11   12 1
    23   12   23 1
    24   12   24 1
    25   13   14 2
    26   13   15 1
@<TRIPOS>MOLECULE
ZINC51151590
   22    23     0     0     0
SMALL
USER_CHARGES

@<TRIPOS>ATOM
      1 C1          0.0329    1.2992    0.2426 C.ar      1 <0>        -0.0444
      2 C2          1.2314    1.9431    0.3413 C.ar      1 <0>        -0.0908
      3 C3          2.4284    1.2384    0.2453 C.ar      1 <0>        -0.0571
      4 C4          2.4352   -0.1110    0.0505 C.ar      1 <0>        -0.0137
      5 C5          1.2194   -0.8077   -0.0555 C.ar      1 <0>         0.1870
      6 C6          0.0050   -0.0878    0.0426 C.ar      1 <0>        -0.1294
      7 C7         -1.2202   -0.7882   -0.0649 C.ar      1 <0>         0.3184
      8 C8         -1.1644   -2.1750   -0.2649 C.ar      1 <0>        -0.1321
      9 C9          0.0868   -2.8072   -0.3496 C.ar      1 <0>         0.2190
     10 N1          1.2042   -2.1341   -0.2476 N.ar      1 <0>        -0.4882
     11 C10        -2.3703   -2.9385   -0.3809 C.1       1 <0>         0.2726
     12 N2         -3.3269   -3.5442   -0.4730 N.1       1 <0>        -0.4063
     13 N3         -2.4284   -0.1290    0.0244 N.pl3     1 <0>        -0.5774
     14 N4         -3.4956   -0.7368    0.6225 N.3       1 <0>        -0.6040
     15 Cl1         3.9415   -0.9660   -0.0669 Cl        1 <0>        -0.0229
     16 Br1         1.2677    3.8144    0.6111 Br        1 <0>        -0.0255
     17 H1         -0.8899    1.8547    0.3225 H         1 <0>         0.1406
     18 H2          3.3657    1.7687    0.3260 H         1 <0>         0.1535
     19 H3          0.1277   -3.8754   -0.5033 H         1 <0>         0.1757
     20 H4         -2.5204    0.7663   -0.3374 H         1 <0>         0.4093
     21 H5         -3.3209   -0.8901    1.6043 H         1 <0>         0.3456
     22 H6         -4.3402   -0.2023    0.4846 H         1 <0>         0.3703
@<TRIPOS>BOND
     1    1    6 ar
     2    1    2 ar
     3    1   17 1
     4    2    3 ar
     5    2   16 1
     6    3    4 ar
     7    3   18 1
     8    4    5 ar
     9    4   15 1
    10    5   10 ar
    11    5    6 ar
    12    6    7 ar
    13    7    8 ar
    14    7   13 1
    15    8    9 ar
    16    8   11 1
    17    9   10 ar
    18    9   19 1
    19   11   12 3
    20   13   14 1
    21   13   20 1
    22   14   21 1
    23   14   22 1
@<TRIPOS>MOLECULE
ZINC61360836
   32    34     0     0     0
SMALL
USER_CHARGES

@<TRIPOS>ATOM
      1 C1         -0.0168    1.3905    0.0097 C.2       1 <0>        -0.1295
      2 C2          1.1445    2.0839    0.0023 C.2       1 <0>        -0.1834
      3 S1          2.3564    0.7713   -0.0163 S.3       1 <0>         0.0318
      4 C3          1.2274   -0.5954   -0.0119 C.2       1 <0>        -0.1460
      5 C4          0.0021   -0.0041    0.0020 C.2       1 <0>        -0.1298
      6 C5         -1.2636   -0.8563    0.0075 C.3       1 <0>         0.2231
      7 H1         -1.6691   -0.9016    1.0183 H         1 <0>         0.1012
      8 C6         -0.9105   -2.2665   -0.4667 C.3       1 <0>        -0.1286
      9 C7          0.2545   -2.8208    0.3582 C.3       1 <0>        -0.1085
     10 C8          1.5331   -2.0579   -0.0204 C.3       1 <0>        -0.0427
     11 N1         -2.2566   -0.2665   -0.8938 N.pl3     1 <0>        -0.7158
     12 C9         -3.0981    0.7455   -0.4369 C.ar      1 <0>         0.3651
     13 C10        -4.0471    1.3002   -1.2998 C.ar      1 <0>         0.1196
     14 C11        -4.8775    2.3078   -0.8282 C.ar      1 <0>        -0.0997
     15 C12        -4.7295    2.7247    0.4890 C.ar      1 <0>        -0.1514
     16 C13        -3.7697    2.1304    1.2834 C.ar      1 <0>         0.1226
     17 N2         -2.9959    1.1697    0.8113 N.ar      1 <0>        -0.4955
     18 Br1        -5.8320    4.0937    1.1864 Br        1 <0>        -0.0425
     19 N3         -4.1584    0.8471   -2.6198 N.pl3     1 <0>        -0.8725
     20 H2         -0.9596    1.9172    0.0260 H         1 <0>         0.1307
     21 H3          1.2990    3.1527    0.0061 H         1 <0>         0.1823
     22 H4         -1.7782   -2.9156   -0.3487 H         1 <0>         0.0758
     23 H5         -0.6258   -2.2338   -1.5183 H         1 <0>         0.0698
     24 H6          0.0483   -2.6843    1.4198 H         1 <0>         0.0733
     25 H7          0.3838   -3.8812    0.1418 H         1 <0>         0.0801
     26 H8          1.8592   -2.3593   -1.0159 H         1 <0>         0.0840
     27 H9          2.3180   -2.2734    0.7047 H         1 <0>         0.0838
     28 H10        -2.3282   -0.5806   -1.8088 H         1 <0>         0.4022
     29 H11        -5.6208    2.7572   -1.4700 H         1 <0>         0.1406
     30 H12        -3.6524    2.4529    2.3075 H         1 <0>         0.1615
     31 H13        -3.5741    0.1429   -2.9417 H         1 <0>         0.3952
     32 H14        -4.8197    1.2374   -3.2124 H         1 <0>         0.4034
@<TRIPOS>BOND
     1    1    5 1
     2    1    2 2
     3    1   20 1
     4    2    3 1
     5    2   21 1
     6    3    4 1
     7    4   10 1
     8    4    5 2
     9    5    6 1
    10    6    7 1
    11    6    8 1
    12    6   11 1
    13    8    9 1
    14    8   22 1
    15    8   23 1
    16    9   10 1
    17    9   24 1
    18    9   25 1
    19   10   26 1
    20   10   27 1
    21   11   12 1
    22   11   28 1
    23   12   17 ar
    24   12   13 ar
    25   13   14 ar
    26   13   19 1
    27   14   15 ar
    28   14   29 1
    29   15   16 ar
    30   15   18 1
    31   16   17 ar
    32   16   30 1
    33   19   31 1
    34   19   32 1
@<TRIPOS>MOLECULE
ZINC03876111
   45    48     0     0     0
SMALL
USER_CHARGES
13-methyl-6,7,8,9,11,12,14,15,16,17-decahydrocyclopenta[a]phenanthrene-2,3,17-triol
@<TRIPOS>ATOM
      1 C1         -3.6080    3.6566   -2.6080 C.3       1 <0>        -0.1370
      2 C2         -3.6745    3.5022   -1.0873 C.3       1 <0>        -0.0471
      3 C3         -3.7200    2.0303   -0.6747 C.3       1 <0>        -0.0927
      4 C4         -2.3604    1.3576   -0.8582 C.3       1 <0>        -0.1157
      5 C5         -1.3510    2.0751    0.0402 C.3       1 <0>        -0.0430
      6 H1         -1.7318    2.0775    1.0615 H         1 <0>         0.0856
      7 C6         -0.0168    1.3842    0.0097 C.ar      1 <0>        -0.0587
      8 C7          0.0021   -0.0041    0.0020 C.ar      1 <0>        -0.1294
      9 C8          1.2019   -0.6910   -0.0018 C.ar      1 <0>         0.0783
     10 C9          2.3995    0.0186    0.0024 C.ar      1 <0>         0.0783
     11 C10         2.3760    1.4004    0.0043 C.ar      1 <0>        -0.1327
     12 C11         1.1685    2.0887    0.0021 C.ar      1 <0>        -0.0669
     13 C12         1.2232    3.5936   -0.0232 C.3       1 <0>        -0.0800
     14 C13        -0.1230    4.2028    0.3660 C.3       1 <0>        -0.1133
     15 C14        -1.2161    3.5132   -0.4505 C.3       1 <0>        -0.0689
     16 H2         -0.9042    3.4924   -1.4947 H         1 <0>         0.0714
     17 C15        -2.5304    4.2460   -0.3714 C.3       1 <0>        -0.0728
     18 H3         -2.4186    5.2411   -0.8020 H         1 <0>         0.0743
     19 C16        -3.0460    4.3905    1.0723 C.3       1 <0>        -0.1173
     20 C17        -4.5475    4.7097    0.8887 C.3       1 <0>        -0.1590
     21 C18        -4.9453    4.1703   -0.4978 C.3       1 <0>         0.1026
     22 H4         -5.2692    4.9898   -1.1394 H         1 <0>         0.0561
     23 O1         -5.9913    3.2054   -0.3673 O.3       1 <0>        -0.5608
     24 O2          3.5867   -0.6447    0.0040 O.3       1 <0>        -0.4885
     25 O3          1.2120   -2.0509   -0.0090 O.3       1 <0>        -0.4881
     26 H5         -4.4827    3.1883   -3.0594 H         1 <0>         0.0595
     27 H6         -3.5896    4.7157   -2.8652 H         1 <0>         0.0547
     28 H7         -2.7044    3.1759   -2.9829 H         1 <0>         0.0601
     29 H8         -4.4596    1.5116   -1.2847 H         1 <0>         0.0675
     30 H9         -4.0123    1.9635    0.3733 H         1 <0>         0.0662
     31 H10        -2.0480    1.4368   -1.8995 H         1 <0>         0.0651
     32 H11        -2.4266    0.3078   -0.5725 H         1 <0>         0.0664
     33 H12        -0.9286   -0.5521   -0.0006 H         1 <0>         0.1345
     34 H13         3.3052    1.9509    0.0080 H         1 <0>         0.1313
     35 H14         1.9856    3.9352    0.6769 H         1 <0>         0.0771
     36 H15         1.4870    3.9246   -1.0277 H         1 <0>         0.0779
     37 H16        -0.3039    4.0452    1.4293 H         1 <0>         0.0679
     38 H17        -0.1198    5.2708    0.1478 H         1 <0>         0.0711
     39 H18        -2.5386    5.2103    1.5808 H         1 <0>         0.0678
     40 H19        -2.9162    3.4579    1.6214 H         1 <0>         0.0708
     41 H20        -4.7081    5.7870    0.9304 H         1 <0>         0.0669
     42 H21        -5.1327    4.2150    1.6639 H         1 <0>         0.0725
     43 H22        -6.8129    3.5628   -0.0036 H         1 <0>         0.3753
     44 H23         3.9322   -0.8349   -0.8790 H         1 <0>         0.3865
     45 H24         1.2149   -2.4395   -0.8945 H         1 <0>         0.3865
@<TRIPOS>BOND
     1    1    2 1
     2    1   26 1
     3    1   27 1
     4    1   28 1
     5    2   17 1
     6    2   21 1
     7    2    3 1
     8    3    4 1
     9    3   29 1
    10    3   30 1
    11    4    5 1
    12    4   31 1
    13    4   32 1
    14    5    6 1
    15    5   15 1
    16    5    7 1
    17    7   12 ar
    18    7    8 ar
    19    8    9 ar
    20    8   33 1
    21    9   10 ar
    22    9   25 1
    23   10   11 ar
    24   10   24 1
    25   11   12 ar
    26   11   34 1
    27   12   13 1
    28   13   14 1
    29   13   35 1
    30   13   36 1
    31   14   15 1
    32   14   37 1
    33   14   38 1
    34   15   16 1
    35   15   17 1
    36   17   18 1
    37   17   19 1
    38   19   20 1
    39   19   39 1
    40   19   40 1
    41   20   21 1
    42   20   41 1
    43   20   42 1
    44   21   22 1
    45   21   23 1
    46   23   43 1
    47   24   44 1
    48   25   45 1
@<TRIPOS>MOLECULE
ZINC36813366
   27    28     0     0     0
SMALL
USER_CHARGES

@<TRIPOS>ATOM
      1 C1         -0.0168    1.3892    0.0097 C.ar      1 <0>        -0.1070
      2 C2          1.1398    2.1070    0.0025 C.ar      1 <0>        -0.0570
      3 C3          2.3763    1.4387   -0.0129 C.ar      1 <0>         0.0799
      4 C4          2.3922    0.0224   -0.0207 C.ar      1 <0>        -0.0110
      5 C5          1.1825   -0.6861   -0.0125 C.ar      1 <0>        -0.0869
      6 C6          0.0021   -0.0041    0.0020 C.ar      1 <0>        -0.0626
      7 Br1        -1.6292   -0.9604    0.0131 Br        1 <0>        -0.0400
      8 C7          3.6364   -0.6488   -0.0361 C.ar      1 <0>        -0.1779
      9 C8          4.7930    0.1248   -0.0429 C.ar      1 <0>         0.2259
     10 C9          4.6907    1.5141   -0.0345 C.ar      1 <0>         0.0884
     11 N1          3.5265    2.1215   -0.0198 N.ar      1 <0>        -0.4138
     12 N2          6.0533   -0.4900   -0.0577 N.pl3     1 <0>        -0.8495
     13 S1          3.7199   -2.4088   -0.0458 S.3       1 <0>        -0.1028
     14 C10         3.7236   -2.8383   -1.8083 C.3       1 <0>        -0.1150
     15 C11         3.7943   -4.3588   -1.9625 C.3       1 <0>         0.0941
     16 O1          3.7973   -4.6971   -3.3509 O.3       1 <0>        -0.5699
     17 H1         -0.9640    1.9078    0.0261 H         1 <0>         0.1408
     18 H2          1.1075    3.1865    0.0082 H         1 <0>         0.1459
     19 H3          1.1856   -1.7661   -0.0188 H         1 <0>         0.1502
     20 H4          5.5930    2.1075   -0.0395 H         1 <0>         0.1684
     21 H5          6.1209   -1.4576   -0.0633 H         1 <0>         0.4109
     22 H6          6.8575    0.0524   -0.0625 H         1 <0>         0.4062
     23 H7          2.8106   -2.4679   -2.2744 H         1 <0>         0.0913
     24 H8          4.5885   -2.3835   -2.2912 H         1 <0>         0.0886
     25 H9          4.7073   -4.7293   -1.4964 H         1 <0>         0.0567
     26 H10         2.9294   -4.8136   -1.4796 H         1 <0>         0.0584
     27 H11         3.8407   -5.6475   -3.5240 H         1 <0>         0.3876
@<TRIPOS>BOND
     1    1    6 ar
     2    1    2 ar
     3    1   17 1
     4    2    3 ar
     5    2   18 1
     6    3   11 ar
     7    3    4 ar
     8    4    5 ar
     9    4    8 ar
    10    5    6 ar
    11    5   19 1
    12    6    7 1
    13    8    9 ar
    14    8   13 1
    15    9   10 ar
    16    9   12 1
    17   10   11 ar
    18   10   20 1
    19   12   21 1
    20   12   22 1
    21   13   14 1
    22   14   15 1
    23   14   23 1
    24   14   24 1
    25   15   16 1
    26   15   25 1
    27   15   26 1
    28   16   27 1
@<TRIPOS>MOLECULE
ZINC40308878
   30    31     0     0     0
SMALL
USER_CHARGES

@<TRIPOS>ATOM
      1 C1         -3.1795    4.0966   -2.0896 C.1       1 <0>        -0.1660
      2 C2         -2.2548    3.7188   -1.4728 C.1       1 <0>        -0.1544
      3 C3         -1.1269    3.2580   -0.7204 C.ar      1 <0>         0.0301
      4 C4         -1.2167    2.0823    0.0268 C.ar      1 <0>        -0.1087
      5 C5         -0.1284    1.6401    0.7510 C.ar      1 <0>        -0.0967
      6 C6          1.0529    2.3580    0.7398 C.ar      1 <0>        -0.1336
      7 C7          1.1525    3.5293   -0.0013 C.ar      1 <0>         0.1457
      8 C8          0.0661    3.9789   -0.7365 C.ar      1 <0>        -0.0970
      9 N1          2.3497    4.2524   -0.0091 N.am      1 <0>        -0.6663
     10 C9          2.3246    5.5965   -0.1042 C.2       1 <0>         0.5630
     11 O1          1.2623    6.1874   -0.0864 O.2       1 <0>        -0.5046
     12 C10         3.5883    6.3521   -0.2301 C.ar      1 <0>        -0.0700
     13 C11         3.5649    7.7445   -0.3230 C.ar      1 <0>        -0.1216
     14 C12         4.7533    8.4471   -0.4404 C.ar      1 <0>         0.2393
     15 C13         5.9654    7.7645   -0.4660 C.ar      1 <0>        -0.0938
     16 C14         5.9887    6.3834   -0.3739 C.ar      1 <0>         0.0137
     17 C15         4.8092    5.6756   -0.2508 C.ar      1 <0>        -0.1296
     18 Cl1         7.5053    5.5393   -0.4066 Cl        1 <0>        -0.0359
     19 Cl2         7.4529    8.6472   -0.6143 Cl        1 <0>        -0.0396
     20 N2          4.7345    9.8417   -0.5336 N.pl3     1 <0>        -0.8604
     21 H1         -4.0066    4.4346   -2.6412 H         1 <0>         0.2258
     22 H2         -2.1380    1.5189    0.0383 H         1 <0>         0.1296
     23 H3         -0.2000    0.7305    1.3287 H         1 <0>         0.1349
     24 H4          1.9012    2.0075    1.3090 H         1 <0>         0.1315
     25 H5          0.1427    4.8868   -1.3163 H         1 <0>         0.1391
     26 H6          3.1981    3.7864    0.0539 H         1 <0>         0.4138
     27 H7          2.6231    8.2728   -0.3036 H         1 <0>         0.1527
     28 H8          4.8312    4.5985   -0.1751 H         1 <0>         0.1430
     29 H9          3.8894   10.3176   -0.5161 H         1 <0>         0.4092
     30 H10         5.5665   10.3335   -0.6158 H         1 <0>         0.4065
@<TRIPOS>BOND
     1    1    2 3
     2    1   21 1
     3    2    3 1
     4    3    8 ar
     5    3    4 ar
     6    4    5 ar
     7    4   22 1
     8    5    6 ar
     9    5   23 1
    10    6    7 ar
    11    6   24 1
    12    7    8 ar
    13    7    9 1
    14    8   25 1
    15    9   10 am
    16    9   26 1
    17   10   11 2
    18   10   12 1
    19   12   17 ar
    20   12   13 ar
    21   13   14 ar
    22   13   27 1
    23   14   15 ar
    24   14   20 1
    25   15   16 ar
    26   15   19 1
    27   16   17 ar
    28   16   18 1
    29   17   28 1
    30   20   29 1
    31   20   30 1
@<TRIPOS>MOLECULE
ZINC50015191
   31    32     0     0     0
SMALL
USER_CHARGES

@<TRIPOS>ATOM
      1 C1         -0.0167    1.3784    0.0096 C.ar      1 <0>        -0.1809
      2 C2          1.1697    2.0893    0.0021 C.ar      1 <0>        -0.0602
      3 C3          2.3774    1.4200   -0.0130 C.ar      1 <0>        -0.2012
      4 C4          2.3998    0.0309   -0.0206 C.ar      1 <0>         0.2353
      5 C5          1.2066   -0.6799   -0.0130 C.ar      1 <0>        -0.1955
      6 C6          0.0021   -0.0041    0.0020 C.ar      1 <0>        -0.0502
      7 C7          1.2261   -2.1868   -0.0217 C.3       1 <0>         0.1715
      8 N1          1.4854   -2.6796    1.3333 N.am      1 <0>        -0.7213
      9 C8          1.5476   -4.0054    1.5677 C.2       1 <0>         0.5528
     10 O1          1.3886   -4.7922    0.6548 O.2       1 <0>        -0.5075
     11 C9          1.8092   -4.5026    2.9345 C.ar      1 <0>        -0.1202
     12 C10         1.9868   -3.6017    3.9864 C.ar      1 <0>        -0.0717
     13 C11         2.2306   -4.0714    5.2598 C.ar      1 <0>        -0.1103
     14 C12         2.3000   -5.4331    5.4980 C.ar      1 <0>        -0.0729
     15 C13         2.1258   -6.3330    4.4615 C.ar      1 <0>        -0.0432
     16 C14         1.8744   -5.8758    3.1809 C.ar      1 <0>         0.0158
     17 Cl1         1.6481   -7.0051    1.8820 Cl        1 <0>        -0.0058
     18 Cl2         2.2157   -8.0389    4.7705 Cl        1 <0>        -0.0378
     19 N2          3.6196   -0.6494   -0.0363 N.pl3     1 <0>        -0.8751
     20 H1         -0.9598    1.9044    0.0260 H         1 <0>         0.1215
     21 H2          1.1515    3.1691    0.0077 H         1 <0>         0.1230
     22 H3          3.3034    1.9757   -0.0192 H         1 <0>         0.1219
     23 H4         -0.9261   -0.5561    0.0079 H         1 <0>         0.1236
     24 H5          0.2618   -2.5606   -0.3660 H         1 <0>         0.0803
     25 H6          2.0115   -2.5361   -0.6920 H         1 <0>         0.0727
     26 H7          1.6123   -2.0518    2.0617 H         1 <0>         0.4002
     27 H8          1.9335   -2.5387    3.8030 H         1 <0>         0.1401
     28 H9          2.3683   -3.3748    6.0735 H         1 <0>         0.1469
     29 H10         2.4913   -5.7948    6.4975 H         1 <0>         0.1489
     30 H11         4.4523   -0.1519   -0.0419 H         1 <0>         0.3998
     31 H12         3.6341   -1.6192   -0.0416 H         1 <0>         0.3993
@<TRIPOS>BOND
     1    1    6 ar
     2    1    2 ar
     3    1   20 1
     4    2    3 ar
     5    2   21 1
     6    3    4 ar
     7    3   22 1
     8    4    5 ar
     9    4   19 1
    10    5    6 ar
    11    5    7 1
    12    6   23 1
    13    7    8 1
    14    7   24 1
    15    7   25 1
    16    8    9 am
    17    8   26 1
    18    9   10 2
    19    9   11 1
    20   11   16 ar
    21   11   12 ar
    22   12   13 ar
    23   12   27 1
    24   13   14 ar
    25   13   28 1
    26   14   15 ar
    27   14   29 1
    28   15   16 ar
    29   15   18 1
    30   16   17 1
    31   19   30 1
    32   19   31 1
@<TRIPOS>MOLECULE
ZINC53735999
   31    33     0     0     0
SMALL
USER_CHARGES

@<TRIPOS>ATOM
      1 C1         -0.0167    1.3784    0.0096 C.ar      1 <0>        -0.0423
      2 C2          1.1691    2.0895    0.0021 C.ar      1 <0>        -0.1592
      3 C3          2.3794    1.4195   -0.0131 C.ar      1 <0>         0.1446
      4 C4          2.4024    0.0300   -0.0208 C.ar      1 <0>         0.0379
      5 C5          1.2084   -0.6812   -0.0132 C.ar      1 <0>         0.1555
      6 C6          0.0021   -0.0041    0.0020 C.ar      1 <0>        -0.1591
      7 F1          1.2258   -2.0321   -0.0211 F         1 <0>        -0.1121
      8 N1          3.6279   -0.6532   -0.0366 N.pl3     1 <0>        -0.4385
      9 C7          4.3367   -1.0420   -1.1603 C.ar      1 <0>         0.0103
     10 C8          4.1225   -0.9162   -2.5259 C.ar      1 <0>        -0.0619
     11 C9          5.0431   -1.4247   -3.4158 C.ar      1 <0>        -0.1571
     12 C10         6.1906   -2.0666   -2.9533 C.ar      1 <0>         0.2123
     13 C11         6.4181   -2.1997   -1.5966 C.ar      1 <0>        -0.1555
     14 C12         5.4909   -1.6872   -0.6853 C.ar      1 <0>         0.1001
     15 N2          5.4305   -1.6606    0.6711 N.2       1 <0>        -0.4707
     16 C13         4.3445   -1.0519    1.0505 C.2       1 <0>         0.2989
     17 C14         3.9374   -0.8249    2.4836 C.3       1 <0>         0.1553
     18 O1          3.1534   -1.9303    2.9368 O.3       1 <0>        -0.5585
     19 N3          7.1173   -2.5793   -3.8676 N.pl3     1 <0>        -0.8773
     20 F2          3.5375    2.1151   -0.0208 F         1 <0>        -0.1171
     21 H1         -0.9599    1.9042    0.0260 H         1 <0>         0.1548
     22 H2          1.1504    3.1693    0.0078 H         1 <0>         0.1547
     23 H3         -0.9262   -0.5561    0.0083 H         1 <0>         0.1548
     24 H4          3.2349   -0.4205   -2.8905 H         1 <0>         0.1217
     25 H5          4.8744   -1.3256   -4.4779 H         1 <0>         0.1322
     26 H6          7.3083   -2.6981   -1.2422 H         1 <0>         0.1305
     27 H7          4.8287   -0.7329    3.1042 H         1 <0>         0.0907
     28 H8          3.3498    0.0904    2.5538 H         1 <0>         0.0647
     29 H9          2.8559   -1.8518    3.8536 H         1 <0>         0.3909
     30 H10         6.9602   -2.4876   -4.8204 H         1 <0>         0.3993
     31 H11         7.9168   -3.0265   -3.5488 H         1 <0>         0.3999
@<TRIPOS>BOND
     1    1    6 ar
     2    1    2 ar
     3    1   21 1
     4    2    3 ar
     5    2   22 1
     6    3    4 ar
     7    3   20 1
     8    4    5 ar
     9    4    8 1
    10    5    6 ar
    11    5    7 1
    12    6   23 1
    13    8   16 1
    14    8    9 1
    15    9   14 ar
    16    9   10 ar
    17   10   11 ar
    18   10   24 1
    19   11   12 ar
    20   11   25 1
    21   12   13 ar
    22   12   19 1
    23   13   14 ar
    24   13   26 1
    25   14   15 1
    26   15   16 2
    27   16   17 1
    28   17   18 1
    29   17   27 1
    30   17   28 1
    31   18   29 1
    32   19   30 1
    33   19   31 1
@<TRIPOS>MOLECULE
ZINC63104484
   31    33     0     0     0
SMALL
USER_CHARGES

@<TRIPOS>ATOM
      1 C1         -0.0168    1.3884    0.0097 C.ar      1 <0>        -0.1709
      2 C2          1.1429    2.1185    0.0025 C.ar      1 <0>        -0.0315
      3 C3          2.4025    1.4776   -0.0134 C.ar      1 <0>         0.0648
      4 C4          2.3865    0.0644   -0.0207 C.ar      1 <0>        -0.1050
      5 C5          1.2242   -0.6644   -0.0131 C.ar      1 <0>        -0.1433
      6 C6          0.0021   -0.0041    0.0020 C.ar      1 <0>         0.2233
      7 N1         -1.1951   -0.7291    0.0091 N.pl3     1 <0>        -0.8720
      8 S1          4.1179   -0.3342   -0.0394 S.3       1 <0>        -0.0303
      9 C7          4.7354    1.3429   -0.0364 C.2       1 <0>         0.4019
     10 N2          3.6289    2.0491   -0.0220 N.2       1 <0>        -0.5660
     11 N3          6.0440    1.7838   -0.0459 N.pl3     1 <0>        -0.6754
     12 C8          6.3331    3.2200   -0.0411 C.3       1 <0>         0.1809
     13 C9          7.8251    3.4322   -0.0535 C.ar      1 <0>        -0.1612
     14 C10         8.4912    3.7236    1.1222 C.ar      1 <0>        -0.0365
     15 C11         9.8593    3.9179    1.1125 C.ar      1 <0>        -0.1655
     16 C12        10.5645    3.8213   -0.0755 C.ar      1 <0>         0.1441
     17 C13         9.8987    3.5296   -1.2532 C.ar      1 <0>        -0.1956
     18 C14         8.5288    3.3294   -1.2413 C.ar      1 <0>         0.1521
     19 F1          7.8783    3.0391   -2.3892 F         1 <0>        -0.1220
     20 F2         11.9020    4.0122   -0.0849 F         1 <0>        -0.1265
     21 H1         -0.9657    1.9039    0.0261 H         1 <0>         0.1304
     22 H2          1.0938    3.1974    0.0087 H         1 <0>         0.1314
     23 H3          1.2591   -1.7438   -0.0196 H         1 <0>         0.1282
     24 H4         -2.0450   -0.2617    0.0194 H         1 <0>         0.4018
     25 H5         -1.1749   -1.6988    0.0037 H         1 <0>         0.4006
     26 H6          6.7718    1.1426   -0.0557 H         1 <0>         0.4199
     27 H7          5.8931    3.6821   -0.9249 H         1 <0>         0.0844
     28 H8          5.9091    3.6730    0.8550 H         1 <0>         0.0879
     29 H9          7.9419    3.7998    2.0489 H         1 <0>         0.1492
     30 H10        10.3787    4.1455    2.0316 H         1 <0>         0.1480
     31 H11        10.4478    3.4540   -2.1801 H         1 <0>         0.1527
@<TRIPOS>BOND
     1    1    6 ar
     2    1    2 ar
     3    1   21 1
     4    2    3 ar
     5    2   22 1
     6    3   10 1
     7    3    4 ar
     8    4    5 ar
     9    4    8 1
    10    5    6 ar
    11    5   23 1
    12    6    7 1
    13    7   24 1
    14    7   25 1
    15    8    9 1
    16    9   10 2
    17    9   11 1
    18   11   12 1
    19   11   26 1
    20   12   13 1
    21   12   27 1
    22   12   28 1
    23   13   18 ar
    24   13   14 ar
    25   14   15 ar
    26   14   29 1
    27   15   16 ar
    28   15   30 1
    29   16   17 ar
    30   16   20 1
    31   17   18 ar
    32   17   31 1
    33   18   19 1
@<TRIPOS>MOLECULE
ZINC35345749
   30    32     0     0     0
SMALL
USER_CHARGES

@<TRIPOS>ATOM
      1 C1          3.9896    1.5560    3.5485 C.ar      1 <0>        -0.0465
      2 C2          3.7458    2.1953    2.3480 C.ar      1 <0>        -0.1740
      3 C3          3.7883    1.4795    1.1609 C.ar      1 <0>         0.1399
      4 C4          4.0760    0.1209    1.1817 C.ar      1 <0>        -0.0619
      5 C5          4.3192   -0.5141    2.3848 C.ar      1 <0>        -0.0465
      6 C6          4.2760    0.2029    3.5675 C.ar      1 <0>        -0.1150
      7 Br1         4.6098   -0.6684    5.2124 Br        1 <0>        -0.0326
      8 Cl1         4.1296   -0.7787   -0.3021 Cl        1 <0>        -0.0397
      9 O1          3.5483    2.1064   -0.0209 O.3       1 <0>        -0.2299
     10 C7          3.3788    3.4555   -0.0050 C.ar      1 <0>         0.0215
     11 C8          2.1054    3.9896    0.0748 C.ar      1 <0>        -0.0881
     12 C9          1.9250    5.3710    0.0915 C.ar      1 <0>         0.0946
     13 C10         3.0387    6.1988    0.0275 C.ar      1 <0>        -0.0785
     14 C11         4.3092    5.6722   -0.0517 C.ar      1 <0>        -0.1375
     15 C12         4.4888    4.2956   -0.0634 C.ar      1 <0>         0.2078
     16 N1          5.7793    3.7540   -0.1384 N.pl3     1 <0>        -0.8642
     17 C13         2.5174    7.6172    0.0649 C.3       1 <0>        -0.1182
     18 C14         1.0150    7.4560    0.1553 C.2       1 <0>         0.5285
     19 O2          0.1965    8.3496    0.2082 O.2       1 <0>        -0.5028
     20 N2          0.7582    6.1372    0.1654 N.am      1 <0>        -0.6566
     21 H1          3.9609    2.1143    4.4726 H         1 <0>         0.1433
     22 H2          3.5218    3.2517    2.3342 H         1 <0>         0.1466
     23 H3          4.5431   -1.5705    2.4020 H         1 <0>         0.1517
     24 H4          1.2485    3.3340    0.1240 H         1 <0>         0.1383
     25 H5          5.1647    6.3294   -0.1012 H         1 <0>         0.1400
     26 H6          5.9015    2.7918   -0.1498 H         1 <0>         0.4036
     27 H7          6.5502    4.3414   -0.1790 H         1 <0>         0.4049
     28 H8          2.8985    8.1410    0.9416 H         1 <0>         0.1283
     29 H9          2.7902    8.1484   -0.8469 H         1 <0>         0.1285
     30 H10        -0.1341    5.7603    0.2173 H         1 <0>         0.4144
@<TRIPOS>BOND
     1    1    6 ar
     2    1    2 ar
     3    1   21 1
     4    2    3 ar
     5    2   22 1
     6    3    4 ar
     7    3    9 1
     8    4    5 ar
     9    4    8 1
    10    5    6 ar
    11    5   23 1
    12    6    7 1
    13    9   10 1
    14   10   15 ar
    15   10   11 ar
    16   11   12 ar
    17   11   24 1
    18   12   20 1
    19   12   13 ar
    20   13   14 ar
    21   13   17 1
    22   14   15 ar
    23   14   25 1
    24   15   16 1
    25   16   26 1
    26   16   27 1
    27   17   18 1
    28   17   28 1
    29   17   29 1
    30   18   19 2
    31   18   20 am
    32   20   30 1
@<TRIPOS>MOLECULE
ZINC33982684
   59    62     0     0     0
SMALL
USER_CHARGES

@<TRIPOS>ATOM
      1 C1          0.1590    1.8201   -0.4486 C.3       1 <0>        -0.1495
      2 C2          0.1841    0.3027   -0.2540 C.3       1 <0>        -0.0439
      3 C3         -1.2489   -0.2199   -0.1341 C.3       1 <0>        -0.1026
      4 C4         -1.9330    0.4391    1.0655 C.3       1 <0>        -0.1559
      5 C5         -1.1593    0.1035    2.3420 C.3       1 <0>         0.1053
      6 H1         -1.6464    0.5736    3.1963 H         1 <0>         0.0490
      7 C6          0.2742    0.6249    2.2218 C.3       1 <0>        -0.1117
      8 C7          0.9574   -0.0349    1.0223 C.3       1 <0>        -0.0694
      9 H2          1.9795    0.3341    0.9371 H         1 <0>         0.0608
     10 C8          0.9728   -1.5530    1.2159 C.3       1 <0>        -0.1269
     11 C9          1.6634   -2.2093    0.0195 C.3       1 <0>        -0.1190
     12 C10         0.9034   -1.8684   -1.2650 C.3       1 <0>        -0.0700
     13 H3         -0.1197   -2.2360   -1.1864 H         1 <0>         0.0837
     14 C11         0.8675   -0.3545   -1.4556 C.3       1 <0>        -0.0638
     15 H4          1.8842    0.0265   -1.5521 H         1 <0>         0.0603
     16 C12         0.0631   -0.0367   -2.7216 C.3       1 <0>        -0.1276
     17 C13         0.7948   -0.6360   -3.9220 C.3       1 <0>        -0.0957
     18 C14         0.9433   -2.1333   -3.7784 C.3       1 <0>        -0.0316
     19 C15         1.5960   -2.5493   -2.4488 C.3       1 <0>        -0.0735
     20 H5          2.6727   -2.3795   -2.4467 H         1 <0>         0.0848
     21 C16         1.2201   -4.0589   -2.3737 C.3       1 <0>        -0.1211
     22 C17        -0.2280   -4.1068   -2.9084 C.3       1 <0>        -0.1454
     23 C18        -0.4046   -2.8658   -3.8051 C.3       1 <0>         0.1056
     24 C19        -0.7397   -3.2860   -5.2130 C.2       1 <0>         0.3356
     25 O1         -0.4139   -4.3787   -5.6107 O.2       1 <0>        -0.4173
     26 C20        -1.4814   -2.3427   -6.1246 C.3       1 <0>         0.0272
     27 O2         -1.6789   -2.9652   -7.3956 O.3       1 <0>        -0.5567
     28 O3         -1.4338   -2.0228   -3.2836 O.3       1 <0>        -0.5231
     29 C21         1.8159   -2.6587   -4.9202 C.3       1 <0>        -0.1599
     30 O4         -1.1369   -1.3133    2.5268 O.3       1 <0>        -0.5491
     31 H6          1.1799    2.1925   -0.5330 H         1 <0>         0.0505
     32 H7         -0.3919    2.0606   -1.3578 H         1 <0>         0.0571
     33 H8         -0.3290    2.2880    0.4064 H         1 <0>         0.0561
     34 H9         -1.8003    0.0194   -1.0434 H         1 <0>         0.0642
     35 H10        -1.2311   -1.3007    0.0064 H         1 <0>         0.0737
     36 H11        -1.9509    1.5198    0.9250 H         1 <0>         0.0712
     37 H12        -2.9540    0.0670    1.1511 H         1 <0>         0.0600
     38 H13         0.2572    1.7056    2.0813 H         1 <0>         0.0749
     39 H14         0.8254    0.3852    3.1311 H         1 <0>         0.0651
     40 H15         1.5161   -1.7977    2.1287 H         1 <0>         0.0495
     41 H16        -0.0506   -1.9204    1.2917 H         1 <0>         0.1115
     42 H17         2.6865   -1.8409   -0.0557 H         1 <0>         0.0510
     43 H18         1.6770   -3.2905    0.1568 H         1 <0>         0.0569
     44 H19        -0.9324   -0.4735   -2.6431 H         1 <0>         0.1123
     45 H20        -0.0182    1.0435   -2.8432 H         1 <0>         0.0551
     46 H21         0.2314   -0.4181   -4.8293 H         1 <0>         0.0565
     47 H22         1.7839   -0.1845   -3.9996 H         1 <0>         0.0592
     48 H23         1.8816   -4.6498   -3.0073 H         1 <0>         0.0672
     49 H24         1.2594   -4.4122   -1.3433 H         1 <0>         0.0749
     50 H25        -0.3812   -5.0146   -3.4920 H         1 <0>         0.0808
     51 H26        -0.9341   -4.0716   -2.0788 H         1 <0>         0.0806
     52 H27        -2.4486   -2.0983   -5.6854 H         1 <0>         0.0827
     53 H28        -0.8999   -1.4298   -6.2536 H         1 <0>         0.0826
     54 H29        -2.1513   -2.4139   -8.0344 H         1 <0>         0.3857
     55 H30        -2.3102   -2.4314   -3.2748 H         1 <0>         0.3671
     56 H31         2.8276   -2.2671   -4.8141 H         1 <0>         0.0679
     57 H32         1.8423   -3.7478   -4.8857 H         1 <0>         0.0675
     58 H33         1.3994   -2.3354   -5.8741 H         1 <0>         0.0533
     59 H34        -2.0134   -1.7129    2.6110 H         1 <0>         0.3663
@<TRIPOS>BOND
     1    1    2 1
     2    1   31 1
     3    1   32 1
     4    1   33 1
     5    2    8 1
     6    2   14 1
     7    2    3 1
     8    3    4 1
     9    3   34 1
    10    3   35 1
    11    4    5 1
    12    4   36 1
    13    4   37 1
    14    5    6 1
    15    5    7 1
    16    5   30 1
    17    7    8 1
    18    7   38 1
    19    7   39 1
    20    8    9 1
    21    8   10 1
    22   10   11 1
    23   10   40 1
    24   10   41 1
    25   11   12 1
    26   11   42 1
    27   11   43 1
    28   12   13 1
    29   12   19 1
    30   12   14 1
    31   14   15 1
    32   14   16 1
    33   16   17 1
    34   16   44 1
    35   16   45 1
    36   17   18 1
    37   17   46 1
    38   17   47 1
    39   18   23 1
    40   18   19 1
    41   18   29 1
    42   19   20 1
    43   19   21 1
    44   21   22 1
    45   21   48 1
    46   21   49 1
    47   22   23 1
    48   22   50 1
    49   22   51 1
    50   23   24 1
    51   23   28 1
    52   24   25 2
    53   24   26 1
    54   26   27 1
    55   26   52 1
    56   26   53 1
    57   27   54 1
    58   28   55 1
    59   29   56 1
    60   29   57 1
    61   29   58 1
    62   30   59 1
@<TRIPOS>MOLECULE
ZINC42362383
   36    37     0     0     0
SMALL
USER_CHARGES

@<TRIPOS>ATOM
      1 C1         -0.0184    1.5028    0.0103 C.3       1 <0>        -0.1077
      2 C2          0.0021   -0.0041    0.0020 C.ar      1 <0>        -0.0936
      3 C3          0.0057   -0.6857   -1.1952 C.ar      1 <0>        -0.0651
      4 C4          0.0246   -2.0814   -1.2022 C.ar      1 <0>        -0.0522
      5 C5          0.0398   -2.7828    0.0049 C.ar      1 <0>        -0.0928
      6 C6          0.0361   -2.0964    1.1989 C.ar      1 <0>        -0.1191
      7 C7          0.0230   -0.7052    1.2029 C.ar      1 <0>         0.1876
      8 N1          0.0250   -0.0131    2.4125 N.pl3     1 <0>        -0.6723
      9 C8          1.2947    0.3680    3.0363 C.3       1 <0>         0.1161
     10 C9         -1.2424    0.3334    3.0603 C.3       1 <0>         0.1989
     11 C10        -1.6536   -0.7808    3.9880 C.2       1 <0>        -0.1446
     12 C11        -2.4378   -1.8227    3.5286 C.2       1 <0>        -0.0943
     13 C12        -2.7899   -2.8094    4.3900 C.2       1 <0>        -0.1791
     14 S1         -2.0043   -2.2770    5.9022 S.3       1 <0>         0.0907
     15 C13        -1.2555   -0.7792    5.2834 C.2       1 <0>        -0.1470
     16 Br1        -3.8407   -4.3490    4.0719 Br        1 <0>         0.0368
     17 C14         0.0281   -2.8158   -2.4859 C.2       1 <0>         0.4131
     18 N2          0.0134   -2.1608   -3.6104 N.2       1 <0>        -0.4175
     19 O1          0.0167   -2.8639   -4.8395 O.3       1 <0>        -0.4236
     20 N3          0.0469   -4.2005   -2.4914 N.pl3     1 <0>        -0.8700
     21 H1          1.0042    1.8801    0.0026 H         1 <0>         0.0696
     22 H2         -0.5455    1.8639   -0.8728 H         1 <0>         0.0652
     23 H3         -0.5286    1.8543    0.9071 H         1 <0>         0.0704
     24 H4         -0.0065   -0.1407   -2.1275 H         1 <0>         0.1380
     25 H5          0.0542   -3.8627    0.0023 H         1 <0>         0.1241
     26 H6          0.0476   -2.6385    2.1329 H         1 <0>         0.1265
     27 H7          1.5926    1.3543    2.6807 H         1 <0>         0.0390
     28 H8          1.1742    0.3933    4.1193 H         1 <0>         0.0578
     29 H9          2.0618   -0.3602    2.7729 H         1 <0>         0.0553
     30 H10        -1.1192    1.2541    3.6306 H         1 <0>         0.0813
     31 H11        -2.0113    0.4765    2.3011 H         1 <0>         0.0750
     32 H12        -2.7652   -1.8502    2.4998 H         1 <0>         0.1376
     33 H13        -0.6445   -0.0582    5.8061 H         1 <0>         0.1894
     34 H14         0.0050   -2.2926   -5.6196 H         1 <0>         0.4011
     35 H15         0.0578   -4.6887   -1.6532 H         1 <0>         0.3962
     36 H16         0.0491   -4.6822   -3.3333 H         1 <0>         0.4091
@<TRIPOS>BOND
     1    1    2 1
     2    1   21 1
     3    1   22 1
     4    1   23 1
     5    2    7 ar
     6    2    3 ar
     7    3    4 ar
     8    3   24 1
     9    4    5 ar
    10    4   17 1
    11    5    6 ar
    12    5   25 1
    13    6    7 ar
    14    6   26 1
    15    7    8 1
    16    8    9 1
    17    8   10 1
    18    9   27 1
    19    9   28 1
    20    9   29 1
    21   10   11 1
    22   10   30 1
    23   10   31 1
    24   11   15 2
    25   11   12 1
    26   12   13 2
    27   12   32 1
    28   13   14 1
    29   13   16 1
    30   14   15 1
    31   15   33 1
    32   17   18 2
    33   17   20 1
    34   18   19 1
    35   19   34 1
    36   20   35 1
    37   20   36 1
@<TRIPOS>MOLECULE
ZINC54464908
   34    36     0     0     0
SMALL
USER_CHARGES

@<TRIPOS>ATOM
      1 C1         -0.0164    1.3552    0.0095 C.ar      1 <0>        -0.1083
      2 C2          1.1573    2.0973    0.0023 C.ar      1 <0>        -0.0921
      3 C3          2.3741    1.4452   -0.0128 C.ar      1 <0>        -0.0682
      4 C4          2.4061    0.0671   -0.0204 C.ar      1 <0>        -0.1124
      5 C5          1.2281   -0.7107   -0.0134 C.ar      1 <0>        -0.0807
      6 C6          0.0021   -0.0041    0.0020 C.ar      1 <0>        -0.0977
      7 C7          1.4506   -2.1491   -0.0232 C.2       1 <0>        -0.1214
      8 C8          2.7062   -2.6192   -0.0376 C.2       1 <0>        -0.1349
      9 S1          3.7042   -1.1421   -0.0393 S.3       1 <0>         0.0636
     10 C9          0.2817   -3.1002   -0.0167 C.3       1 <0>         0.1934
     11 H1         -0.5034   -2.7154   -0.6675 H         1 <0>         0.1165
     12 C10        -0.2498   -3.2333    1.3872 C.2       1 <0>         0.5020
     13 O1         -0.2633   -4.3177    1.9303 O.2       1 <0>        -0.5177
     14 N1         -0.7100   -2.1473    2.0393 N.am      1 <0>        -0.8552
     15 N2          0.7174   -4.4126   -0.5003 N.pl3     1 <0>        -0.7198
     16 C11        -0.2072   -5.2868   -1.0764 C.ar      1 <0>         0.2301
     17 C12        -1.5394   -4.9109   -1.1967 C.ar      1 <0>        -0.1803
     18 C13        -2.4513   -5.7771   -1.7666 C.ar      1 <0>        -0.0638
     19 C14        -2.0403   -7.0183   -2.2173 C.ar      1 <0>        -0.1467
     20 C15        -0.7146   -7.3962   -2.0993 C.ar      1 <0>        -0.0400
     21 C16         0.2042   -6.5312   -1.5354 C.ar      1 <0>        -0.1618
     22 Br1        -0.1578   -9.0945   -2.7172 Br        1 <0>        -0.0497
     23 H2         -0.9657    1.8698    0.0259 H         1 <0>         0.1336
     24 H3          1.1186    3.1766    0.0080 H         1 <0>         0.1393
     25 H4          3.2942    2.0107   -0.0189 H         1 <0>         0.1361
     26 H5         -0.9293   -0.5508    0.0079 H         1 <0>         0.1250
     27 H6          3.0347   -3.6480   -0.0458 H         1 <0>         0.1903
     28 H7         -0.6992   -1.2800    1.6050 H         1 <0>         0.3990
     29 H8         -1.0521   -2.2329    2.9429 H         1 <0>         0.4037
     30 H9          1.6479   -4.6746   -0.4205 H         1 <0>         0.4045
     31 H10        -1.8614   -3.9421   -0.8443 H         1 <0>         0.1198
     32 H11        -3.4868   -5.4851   -1.8602 H         1 <0>         0.1318
     33 H12        -2.7558   -7.6941   -2.6620 H         1 <0>         0.1307
     34 H13         1.2399   -6.8246   -1.4477 H         1 <0>         0.1312
@<TRIPOS>BOND
     1    1    6 ar
     2    1    2 ar
     3    1   23 1
     4    2    3 ar
     5    2   24 1
     6    3    4 ar
     7    3   25 1
     8    4    9 1
     9    4    5 ar
    10    5    6 ar
    11    5    7 1
    12    6   26 1
    13    7    8 2
    14    7   10 1
    15    8    9 1
    16    8   27 1
    17   10   11 1
    18   10   12 1
    19   10   15 1
    20   12   13 2
    21   12   14 am
    22   14   28 1
    23   14   29 1
    24   15   16 1
    25   15   30 1
    26   16   21 ar
    27   16   17 ar
    28   17   18 ar
    29   17   31 1
    30   18   19 ar
    31   18   32 1
    32   19   20 ar
    33   19   33 1
    34   20   21 ar
    35   20   22 1
    36   21   34 1
@<TRIPOS>MOLECULE
ZINC63021978
   33    35     0     0     0
SMALL
USER_CHARGES

@<TRIPOS>ATOM
      1 C1         -0.0184    1.5028    0.0103 C.3       1 <0>        -0.1234
      2 C2          0.0021   -0.0041    0.0020 C.ar      1 <0>        -0.0687
      3 C3          0.0058   -0.6888   -1.1988 C.ar      1 <0>        -0.1050
      4 C4          0.0246   -2.0709   -1.2066 C.ar      1 <0>        -0.0958
      5 C5          0.0396   -2.7693   -0.0135 C.ar      1 <0>        -0.1107
      6 C6          0.0359   -2.0859    1.1877 C.ar      1 <0>        -0.0944
      7 C7          0.0229   -0.7022    1.1960 C.ar      1 <0>        -0.0355
      8 Cl1         0.0249    0.1571    2.7045 Cl        1 <0>        -0.0636
      9 C8          0.0596   -4.2761   -0.0228 C.3       1 <0>         0.1905
     10 H1          0.4941   -4.6279   -0.9585 H         1 <0>         0.1316
     11 C9         -1.3484   -4.7980    0.1048 C.ar      1 <0>        -0.0755
     12 C10        -1.8472   -5.1347    1.3482 C.ar      1 <0>        -0.0902
     13 C11        -3.1423   -5.6147    1.4656 C.ar      1 <0>         0.1143
     14 C12        -3.9379   -5.7560    0.3264 C.ar      1 <0>         0.0981
     15 C13        -3.4295   -5.4158   -0.9174 C.ar      1 <0>        -0.0692
     16 C14        -2.1388   -4.9326   -1.0243 C.ar      1 <0>        -0.0731
     17 Br1        -1.4473   -4.4604   -2.7198 Br        1 <0>        -0.0262
     18 N1         -5.1676   -6.2517    0.7533 N.am      1 <0>        -0.6383
     19 H2         -5.9270   -6.4527    0.1843 H         1 <0>         0.4397
     20 C15        -5.1224   -6.4049    2.0902 C.2       1 <0>         0.6871
     21 O1         -6.0353   -6.8208    2.7790 O.2       1 <0>        -0.5439
     22 N2         -3.9138   -6.0291    2.5492 N.am      1 <0>        -0.6389
     23 H3         -3.6287   -6.0445    3.4762 H         1 <0>         0.4397
     24 O2          0.8440   -4.7489    1.0741 O.3       1 <0>        -0.5381
     25 H4          1.0042    1.8801    0.0026 H         1 <0>         0.0782
     26 H5         -0.5455    1.8639   -0.8728 H         1 <0>         0.0731
     27 H6         -0.5286    1.8543    0.9071 H         1 <0>         0.0746
     28 H7         -0.0063   -0.1438   -2.1311 H         1 <0>         0.1353
     29 H8          0.0271   -2.6054   -2.1450 H         1 <0>         0.1366
     30 H9          0.0474   -2.6316    2.1196 H         1 <0>         0.1294
     31 H10        -1.2292   -5.0245    2.2271 H         1 <0>         0.1414
     32 H11        -4.0419   -5.5238   -1.8005 H         1 <0>         0.1473
     33 H12         0.5150   -4.4733    1.9406 H         1 <0>         0.3736
@<TRIPOS>BOND
     1    1    2 1
     2    1   25 1
     3    1   26 1
     4    1   27 1
     5    2    7 ar
     6    2    3 ar
     7    3    4 ar
     8    3   28 1
     9    4    5 ar
    10    4   29 1
    11    5    6 ar
    12    5    9 1
    13    6    7 ar
    14    6   30 1
    15    7    8 1
    16    9   10 1
    17    9   11 1
    18    9   24 1
    19   11   16 ar
    20   11   12 ar
    21   12   13 ar
    22   12   31 1
    23   13   22 1
    24   13   14 ar
    25   14   15 ar
    26   14   18 1
    27   15   16 ar
    28   15   32 1
    29   16   17 1
    30   18   19 1
    31   18   20 am
    32   20   21 2
    33   20   22 am
    34   22   23 1
    35   24   33 1
@<TRIPOS>MOLECULE
ZINC08993961
   43    45     0     0     0
SMALL
USER_CHARGES
5-(3-chloro-4-methyl-phenyl)amino-3-[(3-hydroxy-1-piperidyl)methyl]-1,3,4-thiadiazole-2-thione
@<TRIPOS>ATOM
      1 C1          2.4820    1.7059   -0.1070 C.3       1 <0>        -0.1287
      2 C2          1.1683    2.4431   -0.0654 C.ar      1 <0>        -0.0680
      3 C3          0.0925    1.9779   -0.7993 C.ar      1 <0>        -0.0699
      4 C4         -1.1129    2.6506   -0.7632 C.ar      1 <0>        -0.1446
      5 C5         -1.2448    3.7967    0.0112 C.ar      1 <0>         0.1352
      6 C6         -0.1647    4.2589    0.7519 C.ar      1 <0>        -0.1141
      7 C7          1.0409    3.5840    0.7075 C.ar      1 <0>        -0.0097
      8 Cl1         2.3940    4.1640    1.6275 Cl        1 <0>        -0.0368
      9 N1         -2.4634    4.4797    0.0492 N.pl3     1 <0>        -0.5821
     10 C8         -3.6568    3.7764   -0.0476 C.2       1 <0>         0.3736
     11 N2         -4.8778    4.2357   -0.1396 N.2       1 <0>        -0.3520
     12 N3         -5.9446    3.3711   -0.2275 N.pl3     1 <0>        -0.3865
     13 C9         -5.7023    2.0362   -0.2165 C.2       1 <0>         0.2076
     14 S1         -6.8048    0.7298   -0.3097 S.2       1 <0>        -0.3321
     15 S2         -3.9208    2.0108   -0.0863 S.3       1 <0>         0.1179
     16 C10        -7.3139    3.8815   -0.3312 C.3       1 <0>         0.2504
     17 C11        -7.2630    2.8912   -2.5397 C.3       1 <0>        -0.0202
     18 C12        -7.5090    3.1712   -4.0240 C.3       1 <0>        -0.1383
     19 C13        -8.9940    3.4743   -4.2419 C.3       1 <0>        -0.1732
     20 C14        -9.3973    4.6654   -3.3683 C.3       1 <0>         0.0946
     21 H1         -8.8315    5.5468   -3.6700 H         1 <0>         0.0778
     22 C15        -9.0965    4.3421   -1.9030 C.3       1 <0>         0.0037
     23 O1        -10.7949    4.9194   -3.5237 O.3       1 <0>        -0.5483
     24 H2          2.5018    0.9539    0.6818 H         1 <0>         0.0853
     25 H3          2.5951    1.2194   -1.0758 H         1 <0>         0.0792
     26 H4          3.2994    2.4113    0.0430 H         1 <0>         0.0804
     27 H5          0.1951    1.0870   -1.4012 H         1 <0>         0.1486
     28 H6         -1.9526    2.2859   -1.3362 H         1 <0>         0.1328
     29 H7         -0.2655    5.1465    1.3588 H         1 <0>         0.1478
     30 H8         -2.4756    5.4451    0.1431 H         1 <0>         0.4379
     31 H9         -8.0022    3.1708    0.1262 H         1 <0>         0.1765
     32 H10        -7.3847    4.8392    0.1844 H         1 <0>         0.1699
     33 H11        -6.2040    2.6891   -2.3789 H         1 <0>         0.1121
     34 H12        -7.8487    2.0252   -2.2315 H         1 <0>         0.1540
     35 H13        -7.2259    2.2975   -4.6109 H         1 <0>         0.1186
     36 H14        -6.9129    4.0285   -4.3368 H         1 <0>         0.0869
     37 H15        -9.5879    2.6028   -3.9663 H         1 <0>         0.0951
     38 H16        -9.1672    3.7164   -5.2904 H         1 <0>         0.0991
     39 H17        -9.6737    3.4692   -1.5978 H         1 <0>         0.1469
     40 H18        -9.3693    5.1937   -1.2798 H         1 <0>         0.1423
     41 H19       -11.0578    5.1317   -4.4297 H         1 <0>         0.4056
     42 N4         -7.6484    4.0843   -1.7560 N.4       1 <0>        -0.4040
     43 H20        -7.1281    4.8964   -2.1082 H         1 <0>         0.4286
@<TRIPOS>BOND
     1    1    2 1
     2    1   24 1
     3    1   25 1
     4    1   26 1
     5    2    7 ar
     6    2    3 ar
     7    3    4 ar
     8    3   27 1
     9    4    5 ar
    10    4   28 1
    11    5    6 ar
    12    5    9 1
    13    6    7 ar
    14    6   29 1
    15    7    8 1
    16    9   10 1
    17    9   30 1
    18   10   15 1
    19   10   11 2
    20   11   12 1
    21   12   13 1
    22   12   16 1
    23   13   14 2
    24   13   15 1
    25   16   31 1
    26   16   32 1
    27   16   42 1
    28   17   18 1
    29   17   33 1
    30   17   34 1
    31   17   42 1
    32   18   19 1
    33   18   35 1
    34   18   36 1
    35   19   20 1
    36   19   37 1
    37   19   38 1
    38   20   21 1
    39   20   22 1
    40   20   23 1
    41   22   39 1
    42   22   40 1
    43   22   42 1
    44   23   41 1
    45   42   43 1
@<TRIPOS>MOLECULE
ZINC36273026
   54    58     0     0     0
SMALL
USER_CHARGES

@<TRIPOS>ATOM
      1 C1          0.7579    1.7164   -0.2302 C.3       1 <0>        -0.0459
      2 N1          0.5798    0.2604   -0.1503 N.4       1 <0>        -0.3877
      3 C2          1.1336   -0.3673   -1.3573 C.3       1 <0>        -0.0032
      4 C3          0.9315   -1.8823   -1.2831 C.3       1 <0>         0.0225
      5 N2          1.6040   -2.4054   -0.0855 N.3       1 <0>        -0.5340
      6 C4          1.0771   -1.7677    1.1294 C.3       1 <0>         0.0238
      7 C5          1.2781   -0.2536    1.0353 C.3       1 <0>        -0.0013
      8 C6          1.4807   -3.8671   -0.0087 C.3       1 <0>         0.1453
      9 C7          2.3788   -4.3903    1.0826 C.2       1 <0>        -0.0697
     10 C8          3.6948   -4.7232    0.9585 C.2       1 <0>         0.1290
     11 N3          4.1362   -5.1461    2.1532 N.2       1 <0>        -0.4705
     12 C9          3.1410   -5.0909    3.0276 C.2       1 <0>         0.2061
     13 N4          2.0289   -4.6148    2.3840 N.pl3     1 <0>        -0.3211
     14 C10         0.8519   -4.4525    3.0616 C.2       1 <0>        -0.0885
     15 C11         0.7688   -4.7566    4.3797 C.2       1 <0>         0.2157
     16 C12         1.8990   -5.2441    5.0663 C.2       1 <0>        -0.1431
     17 C13         3.0699   -5.4169    4.3977 C.2       1 <0>        -0.0301
     18 N5         -0.4434   -4.5854    5.0616 N.pl3     1 <0>        -0.8648
     19 C14         4.5005   -4.6341   -0.2840 C.ar      1 <0>        -0.0210
     20 C15         4.3773   -3.5082   -1.1144 C.ar      1 <0>        -0.1025
     21 C16         5.1031   -3.4025   -2.2573 C.ar      1 <0>        -0.1121
     22 C17         5.9930   -4.4289   -2.6221 C.ar      1 <0>        -0.0455
     23 C18         6.7557   -4.3433   -3.7991 C.ar      1 <0>        -0.1138
     24 C19         7.6087   -5.3527   -4.1252 C.ar      1 <0>        -0.1074
     25 C20         7.7392   -6.4744   -3.3085 C.ar      1 <0>        -0.1150
     26 C21         7.0169   -6.5928   -2.1612 C.ar      1 <0>        -0.1014
     27 C22         6.1257   -5.5699   -1.7911 C.ar      1 <0>        -0.0541
     28 C23         5.3701   -5.6571   -0.6115 C.ar      1 <0>        -0.0642
     29 H1          1.8202    1.9489   -0.3047 H         1 <0>         0.1238
     30 H2          0.2398    2.0981   -1.1100 H         1 <0>         0.1251
     31 H3          0.3459    2.1825    0.6648 H         1 <0>         0.1236
     32 H4          0.6236    0.0247   -2.2373 H         1 <0>         0.1379
     33 H5          2.1987   -0.1458   -1.4259 H         1 <0>         0.1393
     34 H6         -0.1342   -2.1048   -1.2282 H         1 <0>         0.0628
     35 H7          1.3556   -2.3497   -2.1718 H         1 <0>         0.1287
     36 H8          0.0139   -1.9883    1.2240 H         1 <0>         0.0587
     37 H9          1.6075   -2.1516    2.0008 H         1 <0>         0.1193
     38 H10         2.3424   -0.0327    0.9544 H         1 <0>         0.1390
     39 H11         0.8751    0.2226    1.9292 H         1 <0>         0.1346
     40 H12         0.4471   -4.1335    0.2125 H         1 <0>         0.0531
     41 H13         1.7732   -4.3071   -0.9621 H         1 <0>         0.1140
     42 H14        -0.0181   -4.0787    2.5423 H         1 <0>         0.1486
     43 H15         1.8331   -5.4862    6.1167 H         1 <0>         0.1485
     44 H16         3.9422   -5.7884    4.9148 H         1 <0>         0.1605
     45 H17        -1.2218   -4.2496    4.5902 H         1 <0>         0.4014
     46 H18        -0.5041   -4.8027    6.0050 H         1 <0>         0.4101
     47 H19         3.6960   -2.7162   -0.8407 H         1 <0>         0.1394
     48 H20         4.9969   -2.5309   -2.8860 H         1 <0>         0.1251
     49 H21         6.6653   -3.4805   -4.4425 H         1 <0>         0.1268
     50 H22         8.1930   -5.2835   -5.0309 H         1 <0>         0.1254
     51 H23         8.4232   -7.2612   -3.5903 H         1 <0>         0.1264
     52 H24         7.1279   -7.4678   -1.5379 H         1 <0>         0.1294
     53 H25         5.4646   -6.5185    0.0330 H         1 <0>         0.1313
     54 H26        -0.4035    0.0454   -0.0808 H         1 <0>         0.4217
@<TRIPOS>BOND
     1    1    2 1
     2    1   29 1
     3    1   30 1
     4    1   31 1
     5    2    7 1
     6    2    3 1
     7    2   54 1
     8    3    4 1
     9    3   32 1
    10    3   33 1
    11    4    5 1
    12    4   34 1
    13    4   35 1
    14    5    6 1
    15    5    8 1
    16    6    7 1
    17    6   36 1
    18    6   37 1
    19    7   38 1
    20    7   39 1
    21    8    9 1
    22    8   40 1
    23    8   41 1
    24    9   13 1
    25    9   10 2
    26   10   11 1
    27   10   19 1
    28   11   12 2
    29   12   17 1
    30   12   13 1
    31   13   14 1
    32   14   15 2
    33   14   42 1
    34   15   16 1
    35   15   18 1
    36   16   17 2
    37   16   43 1
    38   17   44 1
    39   18   45 1
    40   18   46 1
    41   19   28 ar
    42   19   20 ar
    43   20   21 ar
    44   20   47 1
    45   21   22 ar
    46   21   48 1
    47   22   27 ar
    48   22   23 ar
    49   23   24 ar
    50   23   49 1
    51   24   25 ar
    52   24   50 1
    53   25   26 ar
    54   25   51 1
    55   26   27 ar
    56   26   52 1
    57   27   28 ar
    58   28   53 1
@<TRIPOS>MOLECULE
ZINC43220858
   55    61     0     0     0
SMALL
USER_CHARGES

@<TRIPOS>ATOM
      1 C1         -0.0167    1.3839    0.0097 C.ar      1 <0>        -0.0737
      2 C2          1.1488    2.1217    0.0025 C.ar      1 <0>        -0.1179
      3 C3          2.3950    1.5105   -0.0114 C.ar      1 <0>        -0.0608
      4 C4          2.4200    0.1241   -0.0180 C.ar      1 <0>        -0.1784
      5 C5          1.2444   -0.6201   -0.0134 C.ar      1 <0>        -0.0667
      6 C6          0.0021   -0.0041    0.0020 C.ar      1 <0>        -0.0952
      7 C7          1.5676   -2.0870   -0.0314 C.3       1 <0>        -0.1350
      8 C8          3.0425   -2.1699   -0.4818 C.3       1 <0>         0.0752
      9 H1          3.1501   -2.3445   -1.5523 H         1 <0>         0.1699
     10 C9          3.6099   -0.7951   -0.0273 C.3       1 <0>         0.0467
     11 H2          4.4104   -0.4355   -0.6739 H         1 <0>         0.1722
     12 N1          4.0523   -1.0344    1.3633 N.4       1 <0>        -0.5220
     13 C10         4.0887   -2.4940    1.5568 C.3       1 <0>         0.2117
     14 O1          3.7328   -3.1429    0.3133 O.3       1 <0>        -0.3031
     15 C11         3.0733   -2.8839    2.6371 C.3       1 <0>        -0.1533
     16 C12         3.4505   -2.2039    3.9548 C.3       1 <0>        -0.1336
     17 C13         4.8443   -2.6630    4.3875 C.3       1 <0>        -0.1301
     18 C14         5.8648   -2.2733    3.3150 C.3       1 <0>        -0.1251
     19 C15         5.4850   -2.9236    1.9892 C.3       1 <0>         0.2534
     20 N2          6.4792   -2.5367    0.9446 N.3       1 <0>        -0.6471
     21 C16         6.9506   -3.7962    0.4610 C.3       1 <0>         0.0689
     22 H3          6.1669   -4.1952   -0.1829 H         1 <0>         0.0669
     23 C17         8.2170   -4.2218   -0.1127 C.ar      1 <0>        -0.0827
     24 C18         9.1887   -3.5729   -0.8563 C.ar      1 <0>        -0.0867
     25 C19        10.2850   -4.3123   -1.2735 C.ar      1 <0>        -0.1159
     26 C20        10.4189   -5.6508   -0.9673 C.ar      1 <0>        -0.1075
     27 C21         9.4615   -6.3159   -0.2116 C.ar      1 <0>        -0.0910
     28 C22         8.3752   -5.5872    0.2189 C.ar      1 <0>        -0.1003
     29 C23         7.2203   -6.0163    1.1127 C.3       1 <0>        -0.0680
     30 C24         6.8579   -4.6825    1.7651 C.3       1 <0>         0.0661
     31 H4          7.5774   -4.3776    2.5251 H         1 <0>         0.1052
     32 O2          5.5282   -4.3705    2.1325 O.3       1 <0>        -0.3239
     33 H5         -0.9663    1.8982    0.0261 H         1 <0>         0.1388
     34 H6          1.0903    3.2001    0.0074 H         1 <0>         0.1388
     35 H7          3.3063    2.0901   -0.0165 H         1 <0>         0.1432
     36 H8         -0.9118   -0.5796    0.0082 H         1 <0>         0.1458
     37 H9          1.4521   -2.5121    0.9656 H         1 <0>         0.1096
     38 H10         0.9252   -2.6072   -0.7420 H         1 <0>         0.1152
     39 H11         4.9729   -0.6458    1.5031 H         1 <0>         0.4362
     40 H12         2.0773   -2.5618    2.3335 H         1 <0>         0.1006
     41 H13         3.0815   -3.9657    2.7706 H         1 <0>         0.1314
     42 H14         3.4506   -1.1225    3.8182 H         1 <0>         0.0585
     43 H15         2.7251   -2.4725    4.7227 H         1 <0>         0.1040
     44 H16         5.1079   -2.1848    5.3308 H         1 <0>         0.0918
     45 H17         4.8470   -3.7455    4.5155 H         1 <0>         0.0908
     46 H18         5.8733   -1.1896    3.1986 H         1 <0>         0.0766
     47 H19         6.8556   -2.6138    3.6158 H         1 <0>         0.1083
     48 H20         6.0403   -2.0072    0.2062 H         1 <0>         0.3373
     49 H21         9.0955   -2.5257   -1.1033 H         1 <0>         0.1281
     50 H22        11.0552   -3.8271   -1.8546 H         1 <0>         0.1269
     51 H23        11.2838   -6.1916   -1.3219 H         1 <0>         0.1296
     52 H24         9.5652   -7.3637    0.0289 H         1 <0>         0.1370
     53 H25         6.3991   -6.4230    0.5225 H         1 <0>         0.0993
     54 H26         7.5524   -6.7329    1.8638 H         1 <0>         0.0945
     55 H27         3.3982   -0.6180    2.0089 H         1 <0>         0.4398
@<TRIPOS>BOND
     1    1    6 ar
     2    1    2 ar
     3    1   33 1
     4    2    3 ar
     5    2   34 1
     6    3    4 ar
     7    3   35 1
     8    4   10 1
     9    4    5 ar
    10    5    6 ar
    11    5    7 1
    12    6   36 1
    13    7    8 1
    14    7   37 1
    15    7   38 1
    16    8    9 1
    17    8   14 1
    18    8   10 1
    19   10   11 1
    20   10   12 1
    21   12   13 1
    22   12   39 1
    23   12   55 1
    24   13   19 1
    25   13   14 1
    26   13   15 1
    27   15   16 1
    28   15   40 1
    29   15   41 1
    30   16   17 1
    31   16   42 1
    32   16   43 1
    33   17   18 1
    34   17   44 1
    35   17   45 1
    36   18   19 1
    37   18   46 1
    38   18   47 1
    39   19   32 1
    40   19   20 1
    41   20   21 1
    42   20   48 1
    43   21   22 1
    44   21   30 1
    45   21   23 1
    46   23   28 ar
    47   23   24 ar
    48   24   25 ar
    49   24   49 1
    50   25   26 ar
    51   25   50 1
    52   26   27 ar
    53   26   51 1
    54   27   28 ar
    55   27   52 1
    56   28   29 1
    57   29   30 1
    58   29   53 1
    59   29   54 1
    60   30   31 1
    61   30   32 1
@<TRIPOS>MOLECULE
ZINC38697122
   45    49     0     0     0
SMALL
USER_CHARGES

@<TRIPOS>ATOM
      1 C1         -0.0173    1.3802    0.0117 C.ar      1 <0>        -0.0563
      2 C2          0.2789    0.5204   -1.0335 C.ar      1 <0>        -0.1138
      3 C3          1.4807   -0.1514   -1.0593 C.ar      1 <0>        -0.0538
      4 C4          2.4078    0.0378   -0.0212 C.ar      1 <0>        -0.1686
      5 C5          2.0978    0.9121    1.0335 C.ar      1 <0>        -0.0599
      6 C6          0.8902    1.5739    1.0405 C.ar      1 <0>        -0.1147
      7 C7          3.6477   -0.6492   -0.0377 C.2       1 <0>         0.2695
      8 C8          4.8611    0.0363   -0.1445 C.ar      1 <0>        -0.1725
      9 C9          4.8883    1.4435   -0.2399 C.ar      1 <0>         0.0118
     10 C10         6.0831    2.0856   -0.3425 C.ar      1 <0>        -0.1619
     11 C11         7.2848    1.3817   -0.3555 C.ar      1 <0>         0.0763
     12 C12         7.3229    0.0232   -0.2666 C.ar      1 <0>        -0.2153
     13 C13         6.1260   -0.7069   -0.1580 C.ar      1 <0>         0.3385
     14 N1          6.1650   -2.0407   -0.0708 N.am      1 <0>        -0.5944
     15 C14         5.0890   -2.7960    0.0329 C.2       1 <0>         0.5080
     16 O1          5.2004   -4.0056    0.1078 O.2       1 <0>        -0.3793
     17 C15         3.7176   -2.1607    0.0662 C.3       1 <0>        -0.1597
     18 H1          3.1390   -2.5797   -0.7571 H         1 <0>         0.1959
     19 S1          2.9073   -2.6505    1.6134 S.3       1 <0>         0.1515
     20 C16         2.9146   -4.4117    1.5594 C.2       1 <0>         0.1387
     21 N2          3.4109   -5.1595    0.6003 N.2       1 <0>        -0.2243
     22 N3          3.2487   -6.4032    0.8797 N.2       1 <0>        -0.2414
     23 C17         2.6374   -6.5272    2.0372 C.2       1 <0>         0.2639
     24 N4          2.4099   -5.2541    2.5109 N.pl3     1 <0>        -0.2977
     25 N5          1.8044   -4.9057    3.6848 N.3       1 <0>        -0.5848
     26 C18         2.2713   -7.7875    2.7033 C.2       1 <0>        -0.1355
     27 C19         2.7104   -9.0614    2.4448 C.2       1 <0>        -0.0719
     28 C20         2.2216  -10.0966    3.2097 C.2       1 <0>        -0.1628
     29 C21         1.3237   -9.8274    4.1925 C.2       1 <0>        -0.1250
     30 S2          1.1460   -8.0558    4.0633 S.3       1 <0>         0.0532
     31 H2         -0.9603    1.9065    0.0223 H         1 <0>         0.1434
     32 H3         -0.4353    0.3764   -1.8307 H         1 <0>         0.1461
     33 H4          1.7094   -0.8218   -1.8746 H         1 <0>         0.1393
     34 H5          2.8038    1.0641    1.8366 H         1 <0>         0.1411
     35 H6          0.6499    2.2466    1.8505 H         1 <0>         0.1470
     36 H7          3.9669    2.0070   -0.2318 H         1 <0>         0.1666
     37 H8          6.1002    3.1630   -0.4156 H         1 <0>         0.1631
     38 H9          8.2125    1.9284   -0.4387 H         1 <0>         0.1669
     39 H10         8.2715   -0.4929   -0.2795 H         1 <0>         0.1704
     40 H11         0.8082   -4.8036    3.5614 H         1 <0>         0.3732
     41 H12         2.0121   -5.5745    4.4112 H         1 <0>         0.3834
     42 H13         3.4250   -9.2484    1.6569 H         1 <0>         0.1509
     43 H14         2.5479  -11.1104    3.0302 H         1 <0>         0.1532
     44 H15         0.8433  -10.5094    4.8784 H         1 <0>         0.2012
     45 H16         7.0316   -2.4763   -0.0850 H         1 <0>         0.4406
@<TRIPOS>BOND
     1    1    6 ar
     2    1    2 ar
     3    1   31 1
     4    2    3 ar
     5    2   32 1
     6    3    4 ar
     7    3   33 1
     8    4    5 ar
     9    4    7 1
    10    5    6 ar
    11    5   34 1
    12    6   35 1
    13    7   17 1
    14    7    8 2
    15    8   13 ar
    16    8    9 ar
    17    9   10 ar
    18    9   36 1
    19   10   11 ar
    20   10   37 1
    21   11   12 ar
    22   11   38 1
    23   12   13 ar
    24   12   39 1
    25   13   14 2
    26   14   15 am
    27   14   45 1
    28   15   16 2
    29   15   17 1
    30   17   18 1
    31   17   19 1
    32   19   20 1
    33   20   24 1
    34   20   21 2
    35   21   22 1
    36   22   23 2
    37   23   24 1
    38   23   26 1
    39   24   25 1
    40   25   40 1
    41   25   41 1
    42   26   30 1
    43   26   27 2
    44   27   28 1
    45   27   42 1
    46   28   29 2
    47   28   43 1
    48   29   30 1
    49   29   44 1
@<TRIPOS>MOLECULE
ZINC67604000
   49    52     0     0     0
SMALL
USER_CHARGES

@<TRIPOS>ATOM
      1 C1          1.8913    0.5257   -0.4955 C.3       1 <0>        -0.1051
      2 C2          1.7670   -0.9689   -0.3480 C.2       1 <0>        -0.0885
      3 C3          1.9515   -1.7991   -1.4376 C.2       1 <0>        -0.1595
      4 C4          1.8325   -3.1390   -1.2707 C.2       1 <0>        -0.1474
      5 S1          1.4485   -3.2619    0.4684 S.3       1 <0>         0.0277
      6 C5          1.4781   -1.5195    0.8565 C.2       1 <0>        -0.1684
      7 C6          1.2417   -0.8377    2.1795 C.3       1 <0>        -0.0007
      8 H1          1.3358    0.2411    2.0555 H         1 <0>         0.1154
      9 C7          2.2733   -1.3278    3.1997 C.3       1 <0>        -0.1387
     10 C8          1.9788   -0.6925    4.5602 C.3       1 <0>        -0.0078
     11 N1          0.6321   -1.0747    5.0016 N.4       1 <0>        -0.3800
     12 C9         -0.3675   -0.5463    4.0657 C.3       1 <0>        -0.0462
     13 C10        -0.1640   -1.1745    2.6852 C.3       1 <0>         0.0977
     14 H2         -0.2749   -2.2563    2.7588 H         1 <0>         0.0797
     15 O1         -1.1356   -0.6553    1.7750 O.3       1 <0>        -0.5271
     16 C11         0.3838   -0.5269    6.3418 C.3       1 <0>         0.0810
     17 C12         1.3146   -1.1790    7.3315 C.2       1 <0>        -0.3074
     18 C13         2.4008   -0.6087    7.8969 C.2       1 <0>         0.1201
     19 N2          2.9651   -1.5154    8.7233 N.pl3     1 <0>        -0.4511
     20 H3          3.7601   -1.3777    9.2616 H         1 <0>         0.4562
     21 N3          2.2026   -2.6891    8.6687 N.2       1 <0>        -0.2520
     22 C14         1.2032   -2.4893    7.8358 C.2       1 <0>         0.1404
     23 C15         0.1477   -3.4726    7.4865 C.ar      1 <0>        -0.0609
     24 C16        -1.1834   -3.0691    7.4043 C.ar      1 <0>        -0.0818
     25 C17        -2.1615   -3.9866    7.0793 C.ar      1 <0>        -0.1514
     26 C18        -1.8216   -5.3073    6.8353 C.ar      1 <0>         0.1253
     27 C19        -0.4993   -5.7127    6.9159 C.ar      1 <0>        -0.1470
     28 C20         0.4859   -4.8005    7.2343 C.ar      1 <0>        -0.0547
     29 F1         -2.7825   -6.2025    6.5183 F         1 <0>        -0.1263
     30 H4          2.9249    0.8235   -0.3190 H         1 <0>         0.0713
     31 H5          1.5964    0.8170   -1.5036 H         1 <0>         0.0710
     32 H6          1.2426    1.0176    0.2293 H         1 <0>         0.0669
     33 H7          2.1866   -1.3863   -2.4076 H         1 <0>         0.1395
     34 H8          1.9414   -3.9276   -2.0006 H         1 <0>         0.1907
     35 H9          2.2144   -2.4130    3.2843 H         1 <0>         0.0923
     36 H10         3.2729   -1.0413    2.8729 H         1 <0>         0.1245
     37 H11         2.7116   -1.0391    5.2889 H         1 <0>         0.1340
     38 H12         2.0382    0.3925    4.4745 H         1 <0>         0.1343
     39 H13        -1.3670   -0.7851    4.4292 H         1 <0>         0.1358
     40 H14        -0.2581    0.5356    3.9905 H         1 <0>         0.1413
     41 H15        -2.0506   -0.8322    2.0332 H         1 <0>         0.3921
     42 H16         0.5589    0.5489    6.3327 H         1 <0>         0.1390
     43 H17        -0.6488   -0.7246    6.6295 H         1 <0>         0.1354
     44 H18         2.7557    0.3957    7.7191 H         1 <0>         0.1935
     45 H19        -1.4492   -2.0399    7.5951 H         1 <0>         0.1371
     46 H20        -3.1935   -3.6747    7.0154 H         1 <0>         0.1475
     47 H21        -0.2387   -6.7433    6.7250 H         1 <0>         0.1483
     48 H22         1.5170   -5.1164    7.2926 H         1 <0>         0.1420
     49 H23         0.5628   -2.0809    5.0336 H         1 <0>         0.4221
@<TRIPOS>BOND
     1    1    2 1
     2    1   30 1
     3    1   31 1
     4    1   32 1
     5    2    6 2
     6    2    3 1
     7    3    4 2
     8    3   33 1
     9    4    5 1
    10    4   34 1
    11    5    6 1
    12    6    7 1
    13    7    8 1
    14    7   13 1
    15    7    9 1
    16    9   10 1
    17    9   35 1
    18    9   36 1
    19   10   11 1
    20   10   37 1
    21   10   38 1
    22   11   12 1
    23   11   16 1
    24   11   49 1
    25   12   13 1
    26   12   39 1
    27   12   40 1
    28   13   14 1
    29   13   15 1
    30   15   41 1
    31   16   17 1
    32   16   42 1
    33   16   43 1
    34   17   22 1
    35   17   18 2
    36   18   19 1
    37   18   44 1
    38   19   20 1
    39   19   21 1
    40   21   22 2
    41   22   23 1
    42   23   28 ar
    43   23   24 ar
    44   24   25 ar
    45   24   45 1
    46   25   26 ar
    47   25   46 1
    48   26   27 ar
    49   26   29 1
    50   27   28 ar
    51   27   47 1
    52   28   48 1
@<TRIPOS>MOLECULE
ZINC19931209
   33    35     0     0     0
SMALL
USER_CHARGES
(R)-(2-bromophenyl)-(1-methylbenzimidazol-2-yl)methanamine
@<TRIPOS>ATOM
      1 C1         -0.4103    2.0651   -1.1401 C.3       1 <0>         0.0634
      2 N1          0.3822    1.1954   -0.2672 N.pl3     1 <0>        -0.4773
      3 C2          1.6266    1.4791    0.2589 C.ar      1 <0>         0.0497
      4 C3          2.4880    2.5645    0.1731 C.ar      1 <0>        -0.1113
      5 C4          3.6951    2.5325    0.8383 C.ar      1 <0>        -0.1005
      6 C5          4.0537    1.4237    1.5918 C.ar      1 <0>        -0.1288
      7 C6          3.2186    0.3469    1.6879 C.ar      1 <0>        -0.0627
      8 C7          1.9902    0.3568    1.0220 C.ar      1 <0>         0.0471
      9 N2          0.9708   -0.5349    0.9243 N.2       1 <0>        -0.4802
     10 C8          0.0309   -0.0438    0.1703 C.2       1 <0>         0.2988
     11 C9         -1.2590   -0.7455   -0.1685 C.3       1 <0>         0.1950
     12 H1         -1.8631   -0.1225   -0.8445 H         1 <0>         0.1133
     13 C10        -0.9545   -2.0709   -0.8176 C.ar      1 <0>        -0.0884
     14 C11        -0.8903   -3.2184   -0.0493 C.ar      1 <0>        -0.0948
     15 C12        -0.6152   -4.4348   -0.6453 C.ar      1 <0>        -0.0972
     16 C13        -0.3947   -4.5031   -2.0085 C.ar      1 <0>        -0.1084
     17 C14        -0.4535   -3.3557   -2.7765 C.ar      1 <0>        -0.0888
     18 C15        -0.7335   -2.1387   -2.1812 C.ar      1 <0>        -0.0806
     19 Br1        -0.8135   -0.5682   -3.2315 Br        1 <0>        -0.0486
     20 N3         -2.0326   -0.9683    1.0603 N.3       1 <0>        -0.8125
     21 H2          0.1367    3.0027   -1.3180 H         1 <0>         0.0908
     22 H3         -1.3737    2.2884   -0.6584 H         1 <0>         0.0844
     23 H4         -0.5890    1.5572   -2.0993 H         1 <0>         0.0822
     24 H5          2.2139    3.4297   -0.4123 H         1 <0>         0.1209
     25 H6          4.3661    3.3762    0.7728 H         1 <0>         0.1302
     26 H7          5.0024    1.4121    2.1077 H         1 <0>         0.1296
     27 H8          3.5075   -0.5107    2.2774 H         1 <0>         0.1282
     28 H9         -1.0584   -3.1649    1.0161 H         1 <0>         0.1342
     29 H10        -0.5688   -5.3317   -0.0453 H         1 <0>         0.1340
     30 H11        -0.1761   -5.4532   -2.4731 H         1 <0>         0.1350
     31 H12        -0.2805   -3.4091   -3.8412 H         1 <0>         0.1350
     32 H13        -2.9741   -1.4805    0.8130 H         1 <0>         0.3540
     33 H14        -1.4479   -1.5905    1.7539 H         1 <0>         0.3541
@<TRIPOS>BOND
     1    1    2 1
     2    1   21 1
     3    1   22 1
     4    1   23 1
     5    2   10 1
     6    2    3 1
     7    3    8 ar
     8    3    4 ar
     9    4    5 ar
    10    4   24 1
    11    5    6 ar
    12    5   25 1
    13    6    7 ar
    14    6   26 1
    15    7    8 ar
    16    7   27 1
    17    8    9 1
    18    9   10 2
    19   10   11 1
    20   11   12 1
    21   11   13 1
    22   11   20 1
    23   13   18 ar
    24   13   14 ar
    25   14   15 ar
    26   14   28 1
    27   15   16 ar
    28   15   29 1
    29   16   17 ar
    30   16   30 1
    31   17   18 ar
    32   17   31 1
    33   18   19 1
    34   20   32 1
    35   20   33 1
@<TRIPOS>MOLECULE
ZINC37907031
   27    28     0     0     0
SMALL
USER_CHARGES

@<TRIPOS>ATOM
      1 C1         -0.0187    1.5258    0.0104 C.3       1 <0>        -0.1644
      2 C2          0.0021   -0.0041    0.0020 C.3       1 <0>         0.2299
      3 H1          0.5293   -0.3651    0.8851 H         1 <0>         0.1009
      4 C3         -1.4117   -0.5257    0.0127 C.2       1 <0>         0.0666
      5 C4         -2.2065   -0.7177    1.1475 C.2       1 <0>        -0.2637
      6 C5         -3.4048   -1.1966    0.7405 C.2       1 <0>         0.0643
      7 N1         -3.3696   -1.3038   -0.6043 N.pl3     1 <0>        -0.4726
      8 H2         -4.0906   -1.6207   -1.1706 H         1 <0>         0.4415
      9 N2         -2.1097   -0.8718   -1.0384 N.2       1 <0>        -0.2853
     10 N3          0.6878   -0.4765   -1.2033 N.pl3     1 <0>        -0.7360
     11 C6          2.0801   -0.5910   -1.2154 C.ar      1 <0>         0.2506
     12 C7          2.8154   -0.2628   -0.0835 C.ar      1 <0>        -0.1973
     13 C8          4.1915   -0.3775   -0.0985 C.ar      1 <0>        -0.0515
     14 C9          4.8380   -0.8187   -1.2388 C.ar      1 <0>        -0.1771
     15 C10         4.1096   -1.1459   -2.3676 C.ar      1 <0>        -0.0368
     16 C11         2.7320   -1.0389   -2.3576 C.ar      1 <0>        -0.1783
     17 I1          1.6285   -1.5432   -4.0655 I         1 <0>        -0.0496
     18 H3          1.0039    1.9031    0.0027 H         1 <0>         0.0702
     19 H4         -0.5459    1.8868   -0.8726 H         1 <0>         0.0624
     20 H5         -0.5289    1.8773    0.9072 H         1 <0>         0.0719
     21 H6         -1.9150   -0.5194    2.1684 H         1 <0>         0.1515
     22 H7         -4.2397   -1.4483    1.3777 H         1 <0>         0.1804
     23 H8          0.1751   -0.7099   -1.9930 H         1 <0>         0.4107
     24 H9          2.3114    0.0821    0.8073 H         1 <0>         0.1304
     25 H10         4.7636   -0.1221    0.7811 H         1 <0>         0.1278
     26 H11         5.9143   -0.9074   -1.2477 H         1 <0>         0.1267
     27 H12         4.6176   -1.4894   -3.2566 H         1 <0>         0.1270
@<TRIPOS>BOND
     1    1    2 1
     2    1   18 1
     3    1   19 1
     4    1   20 1
     5    2    3 1
     6    2    4 1
     7    2   10 1
     8    4    9 2
     9    4    5 1
    10    5    6 2
    11    5   21 1
    12    6    7 1
    13    6   22 1
    14    7    8 1
    15    7    9 1
    16   10   11 1
    17   10   23 1
    18   11   16 ar
    19   11   12 ar
    20   12   13 ar
    21   12   24 1
    22   13   14 ar
    23   13   25 1
    24   14   15 ar
    25   14   26 1
    26   15   16 ar
    27   15   27 1
    28   16   17 1
@<TRIPOS>MOLECULE
ZINC43667026
   31    33     0     0     0
SMALL
USER_CHARGES

@<TRIPOS>ATOM
      1 C1         -0.0166    1.3751    0.0096 C.ar      1 <0>        -0.1071
      2 C2          1.1740    2.0780    0.0020 C.ar      1 <0>        -0.1237
      3 C3          2.3723    1.3951   -0.0161 C.ar      1 <0>        -0.0944
      4 C4          2.3932    0.0062   -0.0252 C.ar      1 <0>        -0.0960
      5 C5          1.2079   -0.6937   -0.0125 C.ar      1 <0>        -0.0565
      6 C6          0.0021   -0.0041    0.0020 C.ar      1 <0>        -0.1237
      7 C7          1.1552   -2.1990   -0.0052 C.3       1 <0>        -0.0856
      8 C8          2.4928   -2.7856   -0.4516 C.3       1 <0>        -0.1162
      9 C9          3.6072   -2.1349    0.3764 C.3       1 <0>        -0.1272
     10 C10         3.7365   -0.6749   -0.0530 C.3       1 <0>         0.2160
     11 H1          4.1404   -0.6321   -1.0645 H         1 <0>         0.1005
     12 N1          4.6485    0.0182    0.8603 N.pl3     1 <0>        -0.3869
     13 C11         5.8179    0.6191    0.5196 C.2       1 <0>         0.4033
     14 C12         6.3551    1.1420    1.6567 C.2       1 <0>        -0.3192
     15 C13         5.4883    0.8501    2.7136 C.2       1 <0>         0.1061
     16 N2          4.4668    0.1844    2.2391 N.2       1 <0>        -0.2814
     17 I1          8.1603    2.1960    1.7968 I         1 <0>        -0.0188
     18 N3          6.3670    0.6879   -0.7581 N.pl3     1 <0>        -0.8502
     19 H2         -0.9580    1.9042    0.0259 H         1 <0>         0.1246
     20 H3          1.1658    3.1579    0.0099 H         1 <0>         0.1227
     21 H4          3.3019    1.9448   -0.0236 H         1 <0>         0.1129
     22 H5         -0.9284   -0.5523    0.0071 H         1 <0>         0.1246
     23 H6          0.9293   -2.5458    1.0032 H         1 <0>         0.0819
     24 H7          0.3711   -2.5345   -0.6840 H         1 <0>         0.0799
     25 H8          2.4944   -3.8631   -0.2867 H         1 <0>         0.0792
     26 H9          2.6510   -2.5755   -1.5094 H         1 <0>         0.0687
     27 H10         3.3546   -2.1851    1.4355 H         1 <0>         0.0865
     28 H11         4.5484   -2.6548    0.1979 H         1 <0>         0.0735
     29 H12         5.6350    1.1301    3.7463 H         1 <0>         0.1852
     30 H13         5.9042    0.2814   -1.5074 H         1 <0>         0.4026
     31 H14         7.2123    1.1424   -0.8989 H         1 <0>         0.4189
@<TRIPOS>BOND
     1    1    6 ar
     2    1    2 ar
     3    1   19 1
     4    2    3 ar
     5    2   20 1
     6    3    4 ar
     7    3   21 1
     8    4   10 1
     9    4    5 ar
    10    5    6 ar
    11    5    7 1
    12    6   22 1
    13    7    8 1
    14    7   23 1
    15    7   24 1
    16    8    9 1
    17    8   25 1
    18    8   26 1
    19    9   10 1
    20    9   27 1
    21    9   28 1
    22   10   11 1
    23   10   12 1
    24   12   16 1
    25   12   13 1
    26   13   14 2
    27   13   18 1
    28   14   15 1
    29   14   17 1
    30   15   16 2
    31   15   29 1
    32   18   30 1
    33   18   31 1
@<TRIPOS>MOLECULE
ZINC43681237
   31    33     0     0     0
SMALL
USER_CHARGES

@<TRIPOS>ATOM
      1 C1         -0.0166    1.3751    0.0096 C.ar      1 <0>        -0.1185
      2 C2          1.1740    2.0780    0.0020 C.ar      1 <0>        -0.1185
      3 C3          2.3723    1.3951   -0.0101 C.ar      1 <0>        -0.1159
      4 C4          2.3933    0.0061   -0.0172 C.ar      1 <0>        -0.0750
      5 C5          1.2078   -0.6937   -0.0148 C.ar      1 <0>        -0.0811
      6 C6          0.0021   -0.0041    0.0020 C.ar      1 <0>        -0.1171
      7 C7          1.1549   -2.1988   -0.0383 C.3       1 <0>        -0.0788
      8 C8          2.5009   -2.7904    0.3753 C.3       1 <0>        -0.1237
      9 C9          3.5989   -2.1301   -0.4667 C.3       1 <0>         0.1724
     10 H1          3.3258   -2.1683   -1.5213 H         1 <0>         0.0968
     11 C10         3.7368   -0.6751   -0.0234 C.3       1 <0>        -0.0863
     12 N1          4.8682   -2.8320   -0.2602 N.pl3     1 <0>        -0.3899
     13 C11         5.6070   -3.4478   -1.2191 C.2       1 <0>         0.4064
     14 C12         6.7073   -3.9735   -0.6126 C.2       1 <0>        -0.3209
     15 C13         6.6328   -3.6681    0.7493 C.2       1 <0>         0.1094
     16 N2          5.5389   -2.9822    0.9603 N.2       1 <0>        -0.2900
     17 I1          8.2390   -5.0495   -1.5536 I         1 <0>        -0.0183
     18 N3          5.2964   -3.5271   -2.5741 N.pl3     1 <0>        -0.8495
     19 H2         -0.9580    1.9042    0.0259 H         1 <0>         0.1237
     20 H3          1.1658    3.1579    0.0052 H         1 <0>         0.1238
     21 H4          3.3020    1.9447   -0.0145 H         1 <0>         0.1218
     22 H5         -0.9284   -0.5523    0.0088 H         1 <0>         0.1228
     23 H6          0.3842   -2.5421    0.6519 H         1 <0>         0.0854
     24 H7          0.9093   -2.5341   -1.0459 H         1 <0>         0.0792
     25 H8          2.6797   -2.5923    1.4321 H         1 <0>         0.0839
     26 H9          2.4991   -3.8659    0.1981 H         1 <0>         0.0753
     27 H10         4.4021   -0.1516   -0.7100 H         1 <0>         0.0788
     28 H11         4.1603   -0.6438    0.9805 H         1 <0>         0.0959
     29 H12         7.3576   -3.9475    1.4997 H         1 <0>         0.1861
     30 H13         4.4840   -3.1174   -2.9103 H         1 <0>         0.4029
     31 H14         5.8925   -3.9921   -3.1819 H         1 <0>         0.4189
@<TRIPOS>BOND
     1    1    6 ar
     2    1    2 ar
     3    1   19 1
     4    2    3 ar
     5    2   20 1
     6    3    4 ar
     7    3   21 1
     8    4   11 1
     9    4    5 ar
    10    5    6 ar
    11    5    7 1
    12    6   22 1
    13    7    8 1
    14    7   23 1
    15    7   24 1
    16    8    9 1
    17    8   25 1
    18    8   26 1
    19    9   10 1
    20    9   11 1
    21    9   12 1
    22   11   27 1
    23   11   28 1
    24   12   16 1
    25   12   13 1
    26   13   14 2
    27   13   18 1
    28   14   15 1
    29   14   17 1
    30   15   16 2
    31   15   29 1
    32   18   30 1
    33   18   31 1
@<TRIPOS>MOLECULE
ZINC62013910
   37    39     0     0     0
SMALL
USER_CHARGES

@<TRIPOS>ATOM
      1 C1          0.2982    1.3187    0.3773 C.3       1 <0>        -0.1603
      2 C2          0.1131   -0.1603    0.0319 C.3       1 <0>         0.2071
      3 H1         -0.9484   -0.4072    0.0490 H         1 <0>         0.0874
      4 C3          0.8422   -1.0073    1.0428 C.ar      1 <0>        -0.0946
      5 C4          2.2206   -0.9472    1.1289 C.ar      1 <0>        -0.1031
      6 C5          2.8900   -1.7238    2.0558 C.ar      1 <0>        -0.1112
      7 C6          2.1801   -2.5615    2.8976 C.ar      1 <0>        -0.0353
      8 C7          0.8006   -2.6212    2.8110 C.ar      1 <0>        -0.1089
      9 C8          0.1320   -1.8399    1.8875 C.ar      1 <0>        -0.0971
     10 Cl1         3.0201   -3.5376    4.0617 Cl        1 <0>        -0.0698
     11 N1          0.6536   -0.4211   -1.3045 N.pl3     1 <0>        -0.6593
     12 C9          2.0347   -0.0489   -1.6215 C.3       1 <0>         0.1039
     13 C10        -0.1517   -1.0275   -2.2813 C.ar      1 <0>         0.0746
     14 C11        -0.9174   -0.2301   -3.1264 C.ar      1 <0>        -0.0392
     15 C12        -1.7113   -0.8244   -4.0900 C.ar      1 <0>        -0.1275
     16 C13        -1.7352   -2.1940   -4.2019 C.ar      1 <0>        -0.1127
     17 C14        -0.9733   -3.0377   -3.3641 C.ar      1 <0>         0.0026
     18 C15        -0.1650   -2.4062   -2.3896 C.ar      1 <0>         0.2841
     19 N2          0.6213   -3.1810   -1.5273 N.pl3     1 <0>        -0.8500
     20 N3         -1.1354   -4.3500   -3.6340 N.2       1 <0>        -0.4958
     21 C16        -1.9232   -4.7706   -4.5796 C.2       1 <0>         0.0521
     22 S1         -2.5664   -3.3646   -5.2443 S.3       1 <0>         0.0758
     23 H2          1.3598    1.5656    0.3602 H         1 <0>         0.0607
     24 H3         -0.2292    1.9313   -0.3539 H         1 <0>         0.0653
     25 H4         -0.1040    1.5127    1.3716 H         1 <0>         0.0649
     26 H5          2.7747   -0.2935    0.4715 H         1 <0>         0.1365
     27 H6          3.9669   -1.6770    2.1228 H         1 <0>         0.1328
     28 H7          0.2460   -3.2751    3.4676 H         1 <0>         0.1329
     29 H8         -0.9452   -1.8829    1.8230 H         1 <0>         0.1298
     30 H9          2.7039   -0.8619   -1.3397 H         1 <0>         0.0343
     31 H10         2.1235    0.1406   -2.6912 H         1 <0>         0.0602
     32 H11         2.3042    0.8515   -1.0694 H         1 <0>         0.0631
     33 H12        -0.8920    0.8453   -3.0302 H         1 <0>         0.1376
     34 H13        -2.3100   -0.2153   -4.7510 H         1 <0>         0.1325
     35 H14         1.1735   -2.7504   -0.8561 H         1 <0>         0.4028
     36 H15         0.6135   -4.1481   -1.6015 H         1 <0>         0.4047
     37 H16        -2.1198   -5.7914   -4.8724 H         1 <0>         0.2187
@<TRIPOS>BOND
     1    1    2 1
     2    1   23 1
     3    1   24 1
     4    1   25 1
     5    2    3 1
     6    2    4 1
     7    2   11 1
     8    4    9 ar
     9    4    5 ar
    10    5    6 ar
    11    5   26 1
    12    6    7 ar
    13    6   27 1
    14    7    8 ar
    15    7   10 1
    16    8    9 ar
    17    8   28 1
    18    9   29 1
    19   11   12 1
    20   11   13 1
    21   12   30 1
    22   12   31 1
    23   12   32 1
    24   13   18 ar
    25   13   14 ar
    26   14   15 ar
    27   14   33 1
    28   15   16 ar
    29   15   34 1
    30   16   22 1
    31   16   17 ar
    32   17   18 ar
    33   17   20 1
    34   18   19 1
    35   19   35 1
    36   19   36 1
    37   20   21 2
    38   21   22 1
    39   21   37 1
@<TRIPOS>MOLECULE
ZINC07587943
   62    65     0     0     0
SMALL
USER_CHARGES
2-[2-(3,4,4a,5,6,7,8,8a-octahydro-2H-quinolin-1-yl)acetyl]amino-N-cyclopentyl-benzamide
@<TRIPOS>ATOM
      1 C1         -5.1745    9.7656   -1.6205 C.ar      1 <0>        -0.1214
      2 C2         -5.2274    8.9437   -0.5062 C.ar      1 <0>        -0.0718
      3 C3         -5.0214    7.5846   -0.6303 C.ar      1 <0>        -0.1176
      4 C4         -4.7477    7.0332   -1.8748 C.ar      1 <0>         0.1828
      5 C5         -4.6933    7.8624   -3.0049 C.ar      1 <0>        -0.1537
      6 C6         -4.9097    9.2352   -2.8644 C.ar      1 <0>        -0.0684
      7 C7         -4.4099    7.2880   -4.3338 C.2       1 <0>         0.5678
      8 O1         -4.2976    6.0844   -4.4645 O.2       1 <0>        -0.5538
      9 N1         -4.2753    8.0974   -5.4030 N.am      1 <0>        -0.7116
     10 C8         -3.9938    7.5270   -6.7227 C.3       1 <0>         0.1388
     11 C9         -2.4721    7.3583   -6.9118 C.3       1 <0>        -0.1327
     12 C10        -2.2349    7.7034   -8.4038 C.3       1 <0>        -0.1262
     13 C11        -3.2224    8.8718   -8.6463 C.3       1 <0>        -0.1262
     14 C12        -4.4709    8.4886   -7.8252 C.3       1 <0>        -0.1336
     15 N2         -4.5337    5.6627   -2.0015 N.am      1 <0>        -0.6332
     16 C13        -3.7697    5.0138   -1.1004 C.2       1 <0>         0.5113
     17 O2         -3.3404    5.6045   -0.1321 O.2       1 <0>        -0.5145
     18 C14        -3.4490    3.5544   -1.2962 C.3       1 <0>        -0.0336
     19 C15        -1.2562    3.8938   -0.3282 C.3       1 <0>        -0.0169
     20 C16        -0.2421    3.3205    0.6641 C.3       1 <0>        -0.1439
     21 C17        -0.8283    3.3793    2.0775 C.3       1 <0>        -0.1316
     22 C18        -2.1475    2.6016    2.1060 C.3       1 <0>        -0.0998
     23 H1         -2.5909    2.6719    3.0992 H         1 <0>         0.1169
     24 C19        -3.1063    3.1992    1.0737 C.3       1 <0>         0.0253
     25 H2         -3.2995    4.2429    1.3218 H         1 <0>         0.1604
     26 C20        -4.4228    2.4204    1.0878 C.3       1 <0>        -0.1456
     27 C21        -4.1523    0.9544    0.7435 C.3       1 <0>        -0.1363
     28 C22        -3.1949    0.3568    1.7766 C.3       1 <0>        -0.1310
     29 C23        -1.8780    1.1352    1.7619 C.3       1 <0>        -0.1316
     30 H3         -5.3412   10.8273   -1.5134 H         1 <0>         0.1392
     31 H4         -5.4357    9.3685    0.4647 H         1 <0>         0.1385
     32 H5         -5.0692    6.9498    0.2422 H         1 <0>         0.1390
     33 H6         -4.8691    9.8802   -3.7297 H         1 <0>         0.1350
     34 H7         -4.3649    9.0576   -5.2987 H         1 <0>         0.4029
     35 H8         -4.4921    6.5632   -6.8266 H         1 <0>         0.0949
     36 H9         -1.9287    8.0509   -6.2691 H         1 <0>         0.0692
     37 H10        -2.1737    6.3305   -6.7050 H         1 <0>         0.0696
     38 H11        -2.4794    6.8527   -9.0399 H         1 <0>         0.0715
     39 H12        -1.2070    8.0255   -8.5702 H         1 <0>         0.0720
     40 H13        -3.4706    8.9480   -9.7049 H         1 <0>         0.0731
     41 H14        -2.8005    9.8092   -8.2840 H         1 <0>         0.0688
     42 H15        -5.2001    7.9911   -8.4647 H         1 <0>         0.0793
     43 H16        -4.9127    9.3792   -7.3784 H         1 <0>         0.0723
     44 H17        -4.9345    5.1752   -2.7381 H         1 <0>         0.4303
     45 H18        -3.0045    3.4090   -2.2807 H         1 <0>         0.1613
     46 H19        -4.3647    2.9679   -1.2207 H         1 <0>         0.1621
     47 H20        -0.8477    3.8390   -1.3373 H         1 <0>         0.1227
     48 H21        -1.4624    4.9340   -0.0760 H         1 <0>         0.1504
     49 H22        -0.0237    2.2848    0.4036 H         1 <0>         0.0860
     50 H23         0.6758    3.9071    0.6262 H         1 <0>         0.1114
     51 H24        -0.1266    2.9325    2.7819 H         1 <0>         0.0935
     52 H25        -1.0102    4.4179    2.3536 H         1 <0>         0.0846
     53 H26        -5.1048    2.8465    0.3520 H         1 <0>         0.0819
     54 H27        -4.8718    2.4839    2.0790 H         1 <0>         0.1125
     55 H28        -3.7032    0.8907   -0.2476 H         1 <0>         0.0545
     56 H29        -5.0905    0.3996    0.7538 H         1 <0>         0.0921
     57 H30        -3.6438    0.4210    2.7678 H         1 <0>         0.0800
     58 H31        -3.0023   -0.6877    1.5320 H         1 <0>         0.0804
     59 H32        -1.1959    0.7090    2.4975 H         1 <0>         0.0922
     60 H33        -1.4293    1.0712    0.7706 H         1 <0>         0.0572
     61 N3         -2.4954    3.0897   -0.2678 N.4       1 <0>        -0.3734
     62 H34        -2.2632    2.1060   -0.4487 H         1 <0>         0.4265
@<TRIPOS>BOND
     1    1    6 ar
     2    1    2 ar
     3    1   30 1
     4    2    3 ar
     5    2   31 1
     6    3    4 ar
     7    3   32 1
     8    4    5 ar
     9    4   15 1
    10    5    6 ar
    11    5    7 1
    12    6   33 1
    13    7    8 2
    14    7    9 am
    15    9   10 1
    16    9   34 1
    17   10   14 1
    18   10   11 1
    19   10   35 1
    20   11   12 1
    21   11   36 1
    22   11   37 1
    23   12   13 1
    24   12   38 1
    25   12   39 1
    26   13   14 1
    27   13   40 1
    28   13   41 1
    29   14   42 1
    30   14   43 1
    31   15   16 am
    32   15   44 1
    33   16   17 2
    34   16   18 1
    35   18   45 1
    36   18   46 1
    37   18   61 1
    38   19   20 1
    39   19   47 1
    40   19   48 1
    41   19   61 1
    42   20   21 1
    43   20   49 1
    44   20   50 1
    45   21   22 1
    46   21   51 1
    47   21   52 1
    48   22   23 1
    49   22   29 1
    50   22   24 1
    51   24   25 1
    52   24   26 1
    53   24   61 1
    54   26   27 1
    55   26   53 1
    56   26   54 1
    57   27   28 1
    58   27   55 1
    59   27   56 1
    60   28   29 1
    61   28   57 1
    62   28   58 1
    63   29   59 1
    64   29   60 1
    65   61   62 1
@<TRIPOS>MOLECULE
ZINC13768264
   66    69     0     0     0
SMALL
USER_CHARGES
2-[(1S,4aR,8aR)-4a-hydroxy-1-(4-methoxyphenyl)-1,3,4,5,6,7,8,8a-octahydroisoquinolin-2-yl]-N-cyclohexyl-acetamide
@<TRIPOS>ATOM
      1 C1         -6.3717    0.3461    5.5741 C.3       1 <0>         0.0212
      2 O1         -7.1175   -0.2514    4.5116 O.3       1 <0>        -0.3062
      3 C2         -6.4723   -1.1696    3.7452 C.ar      1 <0>         0.1617
      4 C3         -7.1362   -1.7891    2.6964 C.ar      1 <0>        -0.1402
      5 C4         -6.4783   -2.7226    1.9191 C.ar      1 <0>        -0.0437
      6 C5         -5.1592   -3.0398    2.1859 C.ar      1 <0>        -0.1824
      7 C6         -4.4970   -2.4280    3.2341 C.ar      1 <0>        -0.0795
      8 C7         -5.1486   -1.4894    4.0106 C.ar      1 <0>        -0.1968
      9 C8         -4.4440   -4.0588    1.3367 C.3       1 <0>         0.0914
     10 H1         -4.9654   -4.1698    0.3859 H         1 <0>         0.1498
     11 C9         -4.4203   -5.4037    2.0652 C.3       1 <0>        -0.0809
     12 H2         -3.9047   -5.2899    3.0188 H         1 <0>         0.0990
     13 C10        -5.8505   -5.8782    2.3207 C.3       1 <0>        -0.1076
     14 C11        -6.5798   -6.0526    0.9871 C.3       1 <0>        -0.1268
     15 C12        -5.8419   -7.0890    0.1369 C.3       1 <0>        -0.1215
     16 C13        -4.4137   -6.6079   -0.1251 C.3       1 <0>        -0.1547
     17 C14        -3.6796   -6.4316    1.2061 C.3       1 <0>         0.1333
     18 C15        -2.2609   -5.9204    0.9327 C.3       1 <0>        -0.1728
     19 C16        -2.3431   -4.5604    0.2356 C.3       1 <0>        -0.0087
     20 C17        -3.0475   -2.2611    0.5123 C.3       1 <0>        -0.0346
     21 C18        -1.6337   -1.7395    0.5016 C.2       1 <0>         0.5027
     22 O2         -0.7312   -2.4250    0.9332 O.2       1 <0>        -0.5277
     23 N1         -1.3723   -0.5112    0.0124 N.am      1 <0>        -0.6992
     24 C19         0.0021   -0.0041    0.0020 C.3       1 <0>         0.1420
     25 C20        -0.0187    1.5258    0.0104 C.3       1 <0>        -0.1279
     26 C21         1.4167    2.0553   -0.0004 C.3       1 <0>        -0.1178
     27 C22         2.1328    1.5619   -1.2592 C.3       1 <0>        -0.1261
     28 C23         2.1536    0.0321   -1.2676 C.3       1 <0>        -0.1189
     29 C24         0.7182   -0.4975   -1.2568 C.3       1 <0>        -0.1279
     30 O3         -3.6262   -7.6829    1.8941 O.3       1 <0>        -0.5374
     31 H3         -6.0379   -0.4288    6.2641 H         1 <0>         0.0624
     32 H4         -5.5053    0.8644    5.1631 H         1 <0>         0.0609
     33 H5         -7.0029    1.0584    6.1053 H         1 <0>         0.1114
     34 H6         -8.1668   -1.5422    2.4880 H         1 <0>         0.1461
     35 H7         -6.9947   -3.2051    1.1025 H         1 <0>         0.1414
     36 H8         -3.4681   -2.6810    3.4435 H         1 <0>         0.1198
     37 H9         -4.6297   -1.0088    4.8267 H         1 <0>         0.1410
     38 H10        -5.8278   -6.8312    2.8492 H         1 <0>         0.0919
     39 H11        -6.3750   -5.1399    2.9272 H         1 <0>         0.0770
     40 H12        -6.6042   -5.0996    0.4587 H         1 <0>         0.0573
     41 H13        -7.5989   -6.3924    1.1714 H         1 <0>         0.0783
     42 H14        -6.3621   -7.2174   -0.8123 H         1 <0>         0.0716
     43 H15        -5.8133   -8.0406    0.6676 H         1 <0>         0.0789
     44 H16        -4.4428   -5.6545   -0.6526 H         1 <0>         0.0656
     45 H17        -3.8888   -7.3437   -0.7344 H         1 <0>         0.0811
     46 H18        -1.7238   -5.8147    1.8753 H         1 <0>         0.0980
     47 H19        -1.7358   -6.6284    0.2916 H         1 <0>         0.1166
     48 H20        -2.8700   -4.6698   -0.7123 H         1 <0>         0.1305
     49 H21        -1.3363   -4.1865    0.0496 H         1 <0>         0.1476
     50 H22        -3.6741   -1.6003    1.1113 H         1 <0>         0.1603
     51 H23        -3.4292   -2.2973   -0.5080 H         1 <0>         0.1606
     52 H24        -2.0942    0.0371   -0.3328 H         1 <0>         0.4096
     53 H25         0.5293   -0.3651    0.8851 H         1 <0>         0.0969
     54 H26        -0.5459    1.8868   -0.8726 H         1 <0>         0.0726
     55 H27        -0.5289    1.8773    0.9072 H         1 <0>         0.0713
     56 H28         1.4019    3.1452    0.0056 H         1 <0>         0.0740
     57 H29         1.9439    1.6943    0.8826 H         1 <0>         0.0674
     58 H30         3.1554    1.9392   -1.2670 H         1 <0>         0.0704
     59 H31         1.6057    1.9230   -2.1423 H         1 <0>         0.0654
     60 H32         2.6808   -0.3290   -0.3846 H         1 <0>         0.0665
     61 H33         2.6638   -0.3194   -2.1644 H         1 <0>         0.0708
     62 H34         0.7330   -1.5874   -1.2628 H         1 <0>         0.0658
     63 H35         0.1910   -0.1364   -2.1398 H         1 <0>         0.0679
     64 H36        -3.1694   -8.3812    1.4055 H         1 <0>         0.3895
     65 N2         -3.0525   -3.6087    1.1174 N.4       1 <0>        -0.3776
     66 H37        -2.5689   -3.5696    2.0223 H         1 <0>         0.4290
@<TRIPOS>BOND
     1    1    2 1
     2    1   31 1
     3    1   32 1
     4    1   33 1
     5    2    3 1
     6    3    8 ar
     7    3    4 ar
     8    4    5 ar
     9    4   34 1
    10    5    6 ar
    11    5   35 1
    12    6    7 ar
    13    6    9 1
    14    7    8 ar
    15    7   36 1
    16    8   37 1
    17    9   10 1
    18    9   11 1
    19    9   65 1
    20   11   12 1
    21   11   17 1
    22   11   13 1
    23   13   14 1
    24   13   38 1
    25   13   39 1
    26   14   15 1
    27   14   40 1
    28   14   41 1
    29   15   16 1
    30   15   42 1
    31   15   43 1
    32   16   17 1
    33   16   44 1
    34   16   45 1
    35   17   18 1
    36   17   30 1
    37   18   19 1
    38   18   46 1
    39   18   47 1
    40   19   48 1
    41   19   49 1
    42   19   65 1
    43   20   21 1
    44   20   50 1
    45   20   51 1
    46   20   65 1
    47   21   22 2
    48   21   23 am
    49   23   24 1
    50   23   52 1
    51   24   29 1
    52   24   25 1
    53   24   53 1
    54   25   26 1
    55   25   54 1
    56   25   55 1
    57   26   27 1
    58   26   56 1
    59   26   57 1
    60   27   28 1
    61   27   58 1
    62   27   59 1
    63   28   29 1
    64   28   60 1
    65   28   61 1
    66   29   62 1
    67   29   63 1
    68   30   64 1
    69   65   66 1
@<TRIPOS>MOLECULE
ZINC13831074
   49    53     0     0     0
SMALL
USER_CHARGES

@<TRIPOS>ATOM
      1 C1         -0.0167    1.3782    0.0096 C.ar      1 <0>        -0.1066
      2 C2          1.1700    2.0882    0.0021 C.ar      1 <0>        -0.0735
      3 C3          2.3773    1.4175   -0.0134 C.ar      1 <0>        -0.1274
      4 C4          2.3989    0.0301   -0.0210 C.ar      1 <0>         0.1444
      5 C5          1.2072   -0.6797   -0.0130 C.ar      1 <0>        -0.1692
      6 C6          0.0021   -0.0041    0.0020 C.ar      1 <0>        -0.1151
      7 C7          1.2269   -2.1866   -0.0218 C.3       1 <0>         0.0950
      8 H1          2.0244   -2.5473    0.6278 H         1 <0>         0.1520
      9 C8          1.4555   -2.6918   -1.4497 C.3       1 <0>        -0.1520
     10 C9          1.1752   -4.1684   -1.5070 C.2       1 <0>         0.2802
     11 N1          0.5432   -4.7907   -0.5820 N.2       1 <0>        -0.5239
     12 C10         0.0331   -4.1553    0.6262 C.3       1 <0>         0.2581
     13 H2          0.7075   -4.3685    1.4555 H         1 <0>         0.1638
     14 N2         -0.0689   -2.7026    0.4496 N.4       1 <0>        -0.5380
     15 C11        -1.3312   -4.7125    0.9411 C.ar      1 <0>        -0.1246
     16 C12        -2.2683   -3.9244    1.5830 C.ar      1 <0>        -0.1220
     17 C13        -3.5198   -4.4350    1.8716 C.ar      1 <0>        -0.0786
     18 C14        -3.8347   -5.7347    1.5181 C.ar      1 <0>        -0.0688
     19 C15        -2.8968   -6.5229    0.8759 C.ar      1 <0>        -0.0818
     20 C16        -1.6473   -6.0098    0.5830 C.ar      1 <0>        -0.0530
     21 Br1        -5.5467   -6.4340    1.9133 Br        1 <0>        -0.0175
     22 C17         1.6471   -4.9319   -2.6767 C.ar      1 <0>        -0.0941
     23 C18         2.3441   -4.2853   -3.7006 C.ar      1 <0>        -0.0642
     24 C19         2.7847   -5.0008   -4.7927 C.ar      1 <0>        -0.1082
     25 C20         2.5382   -6.3642   -4.8807 C.ar      1 <0>         0.0782
     26 C21         1.8427   -7.0160   -3.8618 C.ar      1 <0>         0.0256
     27 C22         1.4035   -6.3052   -2.7615 C.ar      1 <0>        -0.0426
     28 O1          1.7336   -8.3379   -4.1857 O.3       1 <0>        -0.3021
     29 C23         2.0080   -8.4112   -5.5972 C.3       1 <0>         0.2113
     30 O2          2.8633   -7.2786   -5.8392 O.3       1 <0>        -0.2992
     31 O3          3.5855   -0.6321   -0.0368 O.3       1 <0>        -0.4925
     32 H3         -0.9596    1.9045    0.0259 H         1 <0>         0.1408
     33 H4          1.1527    3.1681    0.0080 H         1 <0>         0.1430
     34 H5          3.3038    1.9724   -0.0200 H         1 <0>         0.1459
     35 H6         -0.9260   -0.5563    0.0079 H         1 <0>         0.1195
     36 H7          0.7865   -2.1679   -2.1323 H         1 <0>         0.1277
     37 H8          2.4897   -2.5064   -1.7398 H         1 <0>         0.1505
     38 H9         -0.3045   -2.2705    1.3303 H         1 <0>         0.4335
     39 H10        -2.0222   -2.9098    1.8592 H         1 <0>         0.1248
     40 H11        -4.2517   -3.8193    2.3734 H         1 <0>         0.1468
     41 H12        -3.1423   -7.5377    0.5997 H         1 <0>         0.1481
     42 H13        -0.9163   -6.6238    0.0779 H         1 <0>         0.1531
     43 H14         2.5372   -3.2246   -3.6363 H         1 <0>         0.1470
     44 H15         3.3233   -4.4992   -5.5831 H         1 <0>         0.1494
     45 H16         0.8690   -6.8096   -1.9701 H         1 <0>         0.1497
     46 H17         2.5248   -9.3399   -5.8391 H         1 <0>         0.1419
     47 H18         1.0857   -8.3242   -6.1716 H         1 <0>         0.0942
     48 H19         3.9380   -0.8285    0.8420 H         1 <0>         0.4016
     49 H20        -0.7833   -2.4952   -0.2321 H         1 <0>         0.4289
@<TRIPOS>BOND
     1    1    6 ar
     2    1    2 ar
     3    1   32 1
     4    2    3 ar
     5    2   33 1
     6    3    4 ar
     7    3   34 1
     8    4    5 ar
     9    4   31 1
    10    5    6 ar
    11    5    7 1
    12    6   35 1
    13    7    8 1
    14    7   14 1
    15    7    9 1
    16    9   10 1
    17    9   36 1
    18    9   37 1
    19   10   11 2
    20   10   22 1
    21   11   12 1
    22   12   13 1
    23   12   14 1
    24   12   15 1
    25   14   38 1
    26   14   49 1
    27   15   20 ar
    28   15   16 ar
    29   16   17 ar
    30   16   39 1
    31   17   18 ar
    32   17   40 1
    33   18   19 ar
    34   18   21 1
    35   19   20 ar
    36   19   41 1
    37   20   42 1
    38   22   27 ar
    39   22   23 ar
    40   23   24 ar
    41   23   43 1
    42   24   25 ar
    43   24   44 1
    44   25   30 1
    45   25   26 ar
    46   26   27 ar
    47   26   28 1
    48   27   45 1
    49   28   29 1
    50   29   30 1
    51   29   46 1
    52   29   47 1
    53   31   48 1
@<TRIPOS>MOLECULE
ZINC06572940
   64    66     0     0     0
SMALL
USER_CHARGES

@<TRIPOS>ATOM
      1 C1         -2.0525    0.5404   -0.3883 C.3       1 <0>        -0.1179
      2 C2         -0.9617   -0.4803   -0.1900 C.ar      1 <0>        -0.0760
      3 C3         -0.0388   -0.7090   -1.1943 C.ar      1 <0>        -0.0971
      4 C4          0.9635   -1.6446   -1.0164 C.ar      1 <0>        -0.1098
      5 C5          1.0460   -2.3542    0.1658 C.ar      1 <0>        -0.0923
      6 C6          0.1209   -2.1270    1.1762 C.ar      1 <0>         0.1088
      7 C7         -0.8815   -1.1823    0.9964 C.ar      1 <0>        -0.0593
      8 N1          0.2016   -2.8440    2.3747 N.pl3     1 <0>        -0.6388
      9 C8          0.3592   -2.1894    3.5422 C.2       1 <0>         0.5480
     10 S1          0.2970   -0.4789    3.5798 S.2       1 <0>        -0.5640
     11 N2          0.5659   -2.8813    4.6802 N.pl3     1 <0>        -0.5620
     12 C9          0.6283   -2.1782    5.9639 C.3       1 <0>         0.1493
     13 C10        -0.7532   -2.0985    6.5607 C.ar      1 <0>        -0.0745
     14 C11        -1.5875   -1.0277    6.2786 C.ar      1 <0>        -0.1407
     15 C12        -2.8478   -0.9886    6.8443 C.ar      1 <0>         0.1016
     16 N3         -3.2586   -1.9537    7.6436 N.ar      1 <0>        -0.4738
     17 C13        -2.4924   -2.9869    7.9340 C.ar      1 <0>         0.0949
     18 C14        -1.2222   -3.0971    7.4005 C.ar      1 <0>        -0.1679
     19 C15         0.7285   -4.3400    4.6333 C.3       1 <0>         0.1190
     20 C16         1.8341   -4.6904    3.6357 C.3       1 <0>        -0.1732
     21 C17         2.0072   -6.2073    3.5664 C.3       1 <0>         0.0605
     22 N4          0.7553   -6.8892    3.2741 N.4       1 <0>        -0.4949
     23 C18        -0.4234   -6.4894    4.0261 C.3       1 <0>         0.0601
     24 C19        -0.5737   -4.9769    4.1493 C.3       1 <0>        -0.1595
     25 C20        -1.6621   -7.0124    3.2604 C.3       1 <0>        -0.1826
     26 C21        -0.4535   -7.1319    5.4154 C.3       1 <0>        -0.1736
     27 C22         2.6584   -6.7242    4.8488 C.3       1 <0>        -0.1739
     28 C23         2.9833   -6.5045    2.4047 C.3       1 <0>        -0.1839
     29 C24         2.1385   -3.3742    0.3588 C.3       1 <0>        -0.1117
     30 H1         -1.7045    1.5151   -0.0463 H         1 <0>         0.0777
     31 H2         -2.3094    0.5969   -1.4461 H         1 <0>         0.0705
     32 H3         -2.9327    0.2475    0.1842 H         1 <0>         0.0675
     33 H4         -0.1013   -0.1557   -2.1198 H         1 <0>         0.1304
     34 H5          1.6825   -1.8211   -1.8027 H         1 <0>         0.1306
     35 H6         -1.5996   -0.9999    1.7822 H         1 <0>         0.1316
     36 H7          0.1441   -3.8122    2.3655 H         1 <0>         0.3924
     37 H8          1.2868   -2.7197    6.6431 H         1 <0>         0.1008
     38 H9          1.0155   -1.1712    5.8082 H         1 <0>         0.1341
     39 H10        -1.2565   -0.2339    5.6253 H         1 <0>         0.1574
     40 H11        -3.5038   -0.1580    6.6295 H         1 <0>         0.1601
     41 H12        -2.8632   -3.7579    8.5931 H         1 <0>         0.1556
     42 H13        -0.6012   -3.9482    7.6381 H         1 <0>         0.1275
     43 H14         0.9818   -4.6994    5.6266 H         1 <0>         0.1262
     44 H15         1.5682   -4.3085    2.6488 H         1 <0>         0.1033
     45 H16         2.7711   -4.2320    3.9567 H         1 <0>         0.1274
     46 H17         0.5542   -6.7770    2.2771 H         1 <0>         0.4242
     47 H18        -1.3738   -4.7471    4.8579 H         1 <0>         0.1265
     48 H19        -0.8403   -4.5578    3.1754 H         1 <0>         0.0894
     49 H20        -1.6097   -8.0984    3.1829 H         1 <0>         0.0902
     50 H21        -2.5674   -6.7298    3.7977 H         1 <0>         0.1098
     51 H22        -1.6819   -6.5774    2.2611 H         1 <0>         0.0812
     52 H23         0.3660   -6.7371    6.0160 H         1 <0>         0.0834
     53 H24        -1.4024   -6.9037    5.9007 H         1 <0>         0.1084
     54 H25        -0.3453   -8.2122    5.3185 H         1 <0>         0.0879
     55 H26         1.9999   -6.5286    5.6950 H         1 <0>         0.0829
     56 H27         2.8300   -7.7971    4.7622 H         1 <0>         0.0885
     57 H28         3.6099   -6.2154    5.0037 H         1 <0>         0.1085
     58 H29         3.9392   -6.0184    2.5998 H         1 <0>         0.1110
     59 H30         3.1332   -7.5811    2.3225 H         1 <0>         0.0898
     60 H31         2.5655   -6.1237    1.4727 H         1 <0>         0.0821
     61 H32         3.0114   -2.8926    0.7994 H         1 <0>         0.0766
     62 H33         1.7854   -4.1636    1.0222 H         1 <0>         0.0427
     63 H34         2.4087   -3.8040   -0.6058 H         1 <0>         0.0774
     64 H35         0.8977   -7.8934    3.4074 H         1 <0>         0.4315
@<TRIPOS>BOND
     1    1    2 1
     2    1   30 1
     3    1   31 1
     4    1   32 1
     5    2    7 ar
     6    2    3 ar
     7    3    4 ar
     8    3   33 1
     9    4    5 ar
    10    4   34 1
    11    5    6 ar
    12    5   29 1
    13    6    7 ar
    14    6    8 1
    15    7   35 1
    16    8    9 1
    17    8   36 1
    18    9   10 2
    19    9   11 1
    20   11   12 1
    21   11   19 1
    22   12   13 1
    23   12   37 1
    24   12   38 1
    25   13   18 ar
    26   13   14 ar
    27   14   15 ar
    28   14   39 1
    29   15   16 ar
    30   15   40 1
    31   16   17 ar
    32   17   18 ar
    33   17   41 1
    34   18   42 1
    35   19   24 1
    36   19   20 1
    37   19   43 1
    38   20   21 1
    39   20   44 1
    40   20   45 1
    41   21   22 1
    42   21   27 1
    43   21   28 1
    44   22   23 1
    45   22   46 1
    46   22   64 1
    47   23   24 1
    48   23   25 1
    49   23   26 1
    50   24   47 1
    51   24   48 1
    52   25   49 1
    53   25   50 1
    54   25   51 1
    55   26   52 1
    56   26   53 1
    57   26   54 1
    58   27   55 1
    59   27   56 1
    60   27   57 1
    61   28   58 1
    62   28   59 1
    63   28   60 1
    64   29   61 1
    65   29   62 1
    66   29   63 1
@<TRIPOS>MOLECULE
ZINC67120121
   44    46     0     0     0
SMALL
USER_CHARGES

@<TRIPOS>ATOM
      1 C1         -0.0187    1.5258    0.0104 C.3       1 <0>        -0.1811
      2 C2          0.0021   -0.0041    0.0020 C.3       1 <0>         0.0843
      3 H1         -1.0205   -0.3814    0.0098 H         1 <0>         0.1483
      4 C3          0.7074   -0.4901   -1.2379 C.ar      1 <0>        -0.1369
      5 C4          2.0894   -0.5100   -1.2817 C.ar      1 <0>        -0.1124
      6 C5          2.7445   -0.9558   -2.4154 C.ar      1 <0>        -0.0929
      7 C6          2.0140   -1.3830   -3.5105 C.ar      1 <0>         0.1057
      8 C7          0.6209   -1.3618   -3.4667 C.ar      1 <0>         0.1135
      9 C8         -0.0292   -0.9202   -2.3263 C.ar      1 <0>        -0.0967
     10 N1         -0.1069   -1.7950   -4.5841 N.am      1 <0>        -0.6647
     11 C9          0.5258   -2.5081   -5.5412 C.2       1 <0>         0.4893
     12 O1         -0.0759   -2.8664   -6.5315 O.2       1 <0>        -0.4844
     13 C10         1.9830   -2.8562   -5.3737 C.3       1 <0>         0.0490
     14 O2          2.6414   -1.8253   -4.6329 O.3       1 <0>        -0.2941
     15 N2          0.7126   -0.4907    1.1921 N.4       1 <0>        -0.5092
     16 C11        -0.0398   -0.1189    2.3978 C.3       1 <0>         0.0472
     17 C12         0.6890   -0.6181    3.6187 C.ar      1 <0>        -0.1831
     18 C13         0.4207   -1.8808    4.1144 C.ar      1 <0>        -0.0464
     19 C14         1.0869   -2.3411    5.2337 C.ar      1 <0>        -0.1794
     20 C15         2.0263   -1.5358    5.8606 C.ar      1 <0>         0.1568
     21 C16         2.2946   -0.2687    5.3612 C.ar      1 <0>        -0.0595
     22 C17         1.6287    0.1850    4.2377 C.ar      1 <0>        -0.0500
     23 Cl1         3.4695    0.7425    6.1426 Cl        1 <0>        -0.0212
     24 O3          2.6827   -1.9864    6.9623 O.3       1 <0>        -0.3037
     25 C18         2.3554   -3.2999    7.4205 C.3       1 <0>         0.4116
     26 F1          0.9955   -3.3556    7.7441 F         1 <0>        -0.1908
     27 F2          2.6331   -4.2283    6.4115 F         1 <0>        -0.1924
     28 H2          1.0039    1.9031    0.0027 H         1 <0>         0.0854
     29 H3         -0.5459    1.8868   -0.8726 H         1 <0>         0.1087
     30 H4         -0.5289    1.8773    0.9072 H         1 <0>         0.0868
     31 H5          2.6595   -0.1764   -0.4272 H         1 <0>         0.1316
     32 H6          3.8239   -0.9702   -2.4460 H         1 <0>         0.1534
     33 H7         -1.1085   -0.9082   -2.2885 H         1 <0>         0.1450
     34 H8         -1.0504   -1.5862   -4.6683 H         1 <0>         0.4216
     35 H9          2.0710   -3.8010   -4.8373 H         1 <0>         0.1096
     36 H10         2.4483   -2.9517   -6.3547 H         1 <0>         0.1571
     37 H11         0.7982   -1.4950    1.1455 H         1 <0>         0.4304
     38 H12        -0.1324    0.9660    2.4481 H         1 <0>         0.1446
     39 H13        -1.0328   -0.5668    2.3589 H         1 <0>         0.1442
     40 H14        -0.3107   -2.5077    3.6262 H         1 <0>         0.1461
     41 H15         0.8762   -3.3271    5.6205 H         1 <0>         0.1546
     42 H16         1.8397    1.1691    3.8460 H         1 <0>         0.1532
     43 H17         2.9491   -3.5349    8.3039 H         1 <0>         0.1958
     44 H18         1.6317   -0.0761    1.2281 H         1 <0>         0.4250
@<TRIPOS>BOND
     1    1    2 1
     2    1   28 1
     3    1   29 1
     4    1   30 1
     5    2    3 1
     6    2    4 1
     7    2   15 1
     8    4    9 ar
     9    4    5 ar
    10    5    6 ar
    11    5   31 1
    12    6    7 ar
    13    6   32 1
    14    7   14 1
    15    7    8 ar
    16    8    9 ar
    17    8   10 1
    18    9   33 1
    19   10   11 am
    20   10   34 1
    21   11   12 2
    22   11   13 1
    23   13   14 1
    24   13   35 1
    25   13   36 1
    26   15   16 1
    27   15   37 1
    28   15   44 1
    29   16   17 1
    30   16   38 1
    31   16   39 1
    32   17   22 ar
    33   17   18 ar
    34   18   19 ar
    35   18   40 1
    36   19   20 ar
    37   19   41 1
    38   20   21 ar
    39   20   24 1
    40   21   22 ar
    41   21   23 1
    42   22   42 1
    43   24   25 1
    44   25   26 1
    45   25   27 1
    46   25   43 1
@<TRIPOS>MOLECULE
ZINC37308736
   31    33     0     0     0
SMALL
USER_CHARGES

@<TRIPOS>ATOM
      1 C1         -0.0167    1.3778    0.0096 C.ar      1 <0>        -0.0798
      2 C2          1.1707    2.0862    0.0021 C.ar      1 <0>        -0.1141
      3 C3          2.3777    1.4131   -0.0135 C.ar      1 <0>        -0.1192
      4 C4          2.3983    0.0299   -0.0210 C.ar      1 <0>        -0.0099
      5 C5          1.2094   -0.6794   -0.0130 C.ar      1 <0>        -0.0203
      6 C6          0.0021   -0.0041    0.0020 C.ar      1 <0>        -0.0728
      7 Cl1         1.2335   -2.4152   -0.0231 Cl        1 <0>        -0.0134
      8 Cl2         3.9142   -0.8161   -0.0412 Cl        1 <0>        -0.0210
      9 C7          3.6714    2.1861   -0.0227 C.3       1 <0>         0.1425
     10 H1          4.4209    1.6468    0.5565 H         1 <0>         0.1639
     11 C8          4.1518    2.3445   -1.4422 C.ar      1 <0>        -0.1404
     12 C9          3.6041    3.3265   -2.2492 C.ar      1 <0>        -0.0936
     13 C10         4.0392    3.4780   -3.5514 C.ar      1 <0>        -0.0860
     14 C11         5.0275    2.6435   -4.0495 C.ar      1 <0>         0.1063
     15 C12         5.5804    1.6539   -3.2370 C.ar      1 <0>         0.0520
     16 C13         5.1407    1.5127   -1.9301 C.ar      1 <0>        -0.0391
     17 O1          6.5091    0.9988   -3.9759 O.3       1 <0>        -0.2277
     18 C14         6.5550    1.5372   -5.2046 C.2       1 <0>         0.6411
     19 O2          7.2870    1.1722   -6.1043 O.2       1 <0>        -0.4546
     20 N1          5.6636    2.5448   -5.2867 N.am      1 <0>        -0.6450
     21 H2          5.4955    3.1000   -6.0641 H         1 <0>         0.4522
     22 N2          3.4539    3.5118    0.5715 N.4       1 <0>        -0.6328
     23 H3         -0.9593    1.9047    0.0259 H         1 <0>         0.1548
     24 H4          1.1550    3.1660    0.0080 H         1 <0>         0.1344
     25 H5         -0.9258   -0.5567    0.0082 H         1 <0>         0.1577
     26 H6          2.8341    3.9760   -1.8598 H         1 <0>         0.1377
     27 H7          3.6101    4.2443   -4.1799 H         1 <0>         0.1534
     28 H8          5.5680    0.7505   -1.2953 H         1 <0>         0.1516
     29 H9          4.3201    4.0293    0.5653 H         1 <0>         0.4464
     30 H10         2.7601    4.0110    0.0353 H         1 <0>         0.4311
     31 H11         3.1323    3.4058    1.5220 H         1 <0>         0.4447
@<TRIPOS>BOND
     1    1    6 ar
     2    1    2 ar
     3    1   23 1
     4    2    3 ar
     5    2   24 1
     6    3    4 ar
     7    3    9 1
     8    4    5 ar
     9    4    8 1
    10    5    6 ar
    11    5    7 1
    12    6   25 1
    13    9   10 1
    14    9   11 1
    15    9   22 1
    16   11   16 ar
    17   11   12 ar
    18   12   13 ar
    19   12   26 1
    20   13   14 ar
    21   13   27 1
    22   14   20 1
    23   14   15 ar
    24   15   16 ar
    25   15   17 1
    26   16   28 1
    27   17   18 1
    28   18   19 2
    29   18   20 am
    30   20   21 1
    31   22   29 1
    32   22   30 1
    33   22   31 1
@<TRIPOS>MOLECULE
ZINC43024245
   31    32     0     0     0
SMALL
USER_CHARGES

@<TRIPOS>ATOM
      1 C1         -1.1396    0.0847   -0.4234 C.3       1 <0>        -0.2013
      2 C2          0.2818    0.4265    0.0281 C.3       1 <0>         0.0352
      3 H1          0.9773    0.2427   -0.7907 H         1 <0>         0.1582
      4 C3          0.6607   -0.4477    1.2252 C.3       1 <0>        -0.0618
      5 H2          1.6957   -0.2515    1.5052 H         1 <0>         0.1406
      6 C4         -0.2435   -0.1275    2.3874 C.ar      1 <0>        -0.1206
      7 C5         -1.5426   -0.6006    2.4033 C.ar      1 <0>        -0.0905
      8 C6         -2.3724   -0.3072    3.4690 C.ar      1 <0>        -0.0968
      9 C7         -1.9038    0.4595    4.5196 C.ar      1 <0>        -0.0634
     10 C8         -0.6043    0.9325    4.5044 C.ar      1 <0>        -0.0871
     11 C9          0.2276    0.6342    3.4399 C.ar      1 <0>        -0.0847
     12 Br1         0.0371    1.9818    5.9408 Br        1 <0>        -0.0173
     13 S1          0.4761   -2.1964    0.7793 S.3       1 <0>         0.0884
     14 C10         1.7465   -2.4693   -0.4108 C.2       1 <0>         0.2299
     15 N1          1.9432   -3.6025   -1.1189 N.pl3     1 <0>        -0.4488
     16 H3          1.4175   -4.4164   -1.0716 H         1 <0>         0.4513
     17 N2          3.0599   -3.3680   -1.9373 N.2       1 <0>        -0.2848
     18 C11         3.4653   -2.1513   -1.6909 C.2       1 <0>         0.2175
     19 N3          2.6696   -1.6029   -0.7721 N.2       1 <0>        -0.5506
     20 N4          0.3452    1.8420    0.4160 N.4       1 <0>        -0.6326
     21 H4         -1.8486    0.3905    0.3459 H         1 <0>         0.0902
     22 H5         -1.3620    0.6102   -1.3521 H         1 <0>         0.0927
     23 H6         -1.2206   -0.9901   -0.5857 H         1 <0>         0.1176
     24 H7         -1.9092   -1.1992    1.5825 H         1 <0>         0.1439
     25 H8         -3.3872   -0.6766    3.4808 H         1 <0>         0.1478
     26 H9         -2.5525    0.6892    5.3519 H         1 <0>         0.1469
     27 H10         1.2436    1.0002    3.4294 H         1 <0>         0.1426
     28 H11         4.3080   -1.6651   -2.1599 H         1 <0>         0.2286
     29 H12        -0.2502    1.9987    1.2154 H         1 <0>         0.4307
     30 H13         1.2959    2.0837    0.6522 H         1 <0>         0.4379
     31 H14         0.0335    2.4158   -0.3532 H         1 <0>         0.4404
@<TRIPOS>BOND
     1    1    2 1
     2    1   21 1
     3    1   22 1
     4    1   23 1
     5    2    3 1
     6    2    4 1
     7    2   20 1
     8    4    5 1
     9    4    6 1
    10    4   13 1
    11    6   11 ar
    12    6    7 ar
    13    7    8 ar
    14    7   24 1
    15    8    9 ar
    16    8   25 1
    17    9   10 ar
    18    9   26 1
    19   10   11 ar
    20   10   12 1
    21   11   27 1
    22   13   14 1
    23   14   19 2
    24   14   15 1
    25   15   16 1
    26   15   17 1
    27   17   18 2
    28   18   19 1
    29   18   28 1
    30   20   29 1
    31   20   30 1
    32   20   31 1
@<TRIPOS>MOLECULE
ZINC44779745
   51    52     0     0     0
SMALL
USER_CHARGES

@<TRIPOS>ATOM
      1 C1         -0.0442    1.5348   -0.0116 C.3       1 <0>        -0.1893
      2 C2         -0.0230    0.0051   -0.0319 C.3       1 <0>        -0.0104
      3 N1         -1.4005   -0.5042    0.0004 N.4       1 <0>        -0.3788
      4 C3         -2.0986   -0.1009   -1.2262 C.3       1 <0>        -0.0151
      5 C4         -3.5571   -0.5591   -1.1616 C.3       1 <0>        -0.1414
      6 C5         -3.6019   -2.0837   -1.0248 C.3       1 <0>        -0.1504
      7 C6         -2.8078   -2.4984    0.2173 C.3       1 <0>         0.1270
      8 H1         -3.2796   -2.0815    1.1070 H         1 <0>         0.1126
      9 C7         -1.3770   -1.9684    0.1016 C.3       1 <0>        -0.0190
     10 N2         -2.7824   -3.9599    0.3163 N.am      1 <0>        -0.7258
     11 C8         -3.8016   -4.6129    0.9091 C.2       1 <0>         0.5510
     12 O1         -4.6988   -3.9879    1.4337 O.2       1 <0>        -0.5081
     13 C9         -3.8262   -6.1197    0.9200 C.3       1 <0>        -0.0569
     14 C10        -4.6381   -6.6034    2.0909 C.3       1 <0>        -0.1013
     15 C11        -4.6753   -5.5828    3.2444 C.3       1 <0>        -0.1213
     16 C12        -3.3077   -4.9214    3.5012 C.3       1 <0>        -0.1291
     17 C13        -2.1702   -5.9036    3.4276 C.3       1 <0>        -0.1261
     18 C14        -1.5926   -5.8780    1.9976 C.3       1 <0>        -0.1364
     19 C15        -2.3888   -6.6603    1.0637 C.3       1 <0>        -0.1128
     20 C16        -4.4313   -6.6254   -0.3642 C.2       1 <0>         0.2848
     21 S1         -3.6260   -7.6668   -1.2717 S.2       1 <0>        -0.4078
     22 N3         -5.6513   -6.1998   -0.7477 N.pl3     1 <0>        -0.7752
     23 H2          0.9780    1.9127   -0.0356 H         1 <0>         0.1084
     24 H3         -0.5879    1.9022   -0.8820 H         1 <0>         0.0813
     25 H4         -0.5377    1.8793    0.8971 H         1 <0>         0.0814
     26 H5          0.4706   -0.3395   -0.9407 H         1 <0>         0.1309
     27 H6          0.5208   -0.3623    0.8384 H         1 <0>         0.1321
     28 H7         -2.0631    0.9841   -1.3239 H         1 <0>         0.1370
     29 H8         -1.6122   -0.5585   -2.0877 H         1 <0>         0.1312
     30 H9         -4.0445   -0.1019   -0.3005 H         1 <0>         0.0913
     31 H10        -4.0732   -0.2603   -2.0740 H         1 <0>         0.1176
     32 H11        -4.6367   -2.4102   -0.9215 H         1 <0>         0.0963
     33 H12        -3.1604   -2.5423   -1.9096 H         1 <0>         0.0858
     34 H13        -0.9060   -2.3861   -0.7882 H         1 <0>         0.1362
     35 H14        -0.8088   -2.2620    0.9842 H         1 <0>         0.1384
     36 H15        -2.0322   -4.4575   -0.0448 H         1 <0>         0.4133
     37 H16        -5.6579   -6.7960    1.7575 H         1 <0>         0.0673
     38 H17        -4.2074   -7.5350    2.4580 H         1 <0>         0.0862
     39 H18        -5.4015   -4.8065    3.0037 H         1 <0>         0.0908
     40 H19        -4.9960   -6.0914    4.1536 H         1 <0>         0.0645
     41 H20        -3.1483   -4.1407    2.7574 H         1 <0>         0.0602
     42 H21        -3.3167   -4.4658    4.4914 H         1 <0>         0.0621
     43 H22        -1.3956   -5.6209    4.1405 H         1 <0>         0.0668
     44 H23        -2.5353   -6.9046    3.6572 H         1 <0>         0.0728
     45 H24        -1.5549   -4.8454    1.6506 H         1 <0>         0.0601
     46 H25        -0.5791   -6.2785    2.0191 H         1 <0>         0.0777
     47 H26        -2.4329   -7.6913    1.4147 H         1 <0>         0.0935
     48 H27        -1.9057   -6.6424    0.0867 H         1 <0>         0.0967
     49 H28        -6.1705   -5.6256   -0.1633 H         1 <0>         0.4014
     50 H29        -6.0100   -6.4677   -1.6082 H         1 <0>         0.4237
     51 H30        -1.8812   -0.1205    0.8002 H         1 <0>         0.4245
@<TRIPOS>BOND
     1    1    2 1
     2    1   23 1
     3    1   24 1
     4    1   25 1
     5    2    3 1
     6    2   26 1
     7    2   27 1
     8    3    9 1
     9    3    4 1
    10    3   51 1
    11    4    5 1
    12    4   28 1
    13    4   29 1
    14    5    6 1
    15    5   30 1
    16    5   31 1
    17    6    7 1
    18    6   32 1
    19    6   33 1
    20    7    8 1
    21    7    9 1
    22    7   10 1
    23    9   34 1
    24    9   35 1
    25   10   11 am
    26   10   36 1
    27   11   12 2
    28   11   13 1
    29   13   19 1
    30   13   14 1
    31   13   20 1
    32   14   15 1
    33   14   37 1
    34   14   38 1
    35   15   16 1
    36   15   39 1
    37   15   40 1
    38   16   17 1
    39   16   41 1
    40   16   42 1
    41   17   18 1
    42   17   43 1
    43   17   44 1
    44   18   19 1
    45   18   45 1
    46   18   46 1
    47   19   47 1
    48   19   48 1
    49   20   21 2
    50   20   22 1
    51   22   49 1
    52   22   50 1
@<TRIPOS>MOLECULE
ZINC62014775
   41    42     0     0     0
SMALL
USER_CHARGES

@<TRIPOS>ATOM
      1 C1         -2.5723   -0.1726   -0.9783 C.3       1 <0>        -0.1255
      2 C2         -1.2583   -0.6507   -0.4162 C.ar      1 <0>         0.2137
      3 C3         -0.0873   -0.3770   -1.1002 C.ar      1 <0>        -0.1709
      4 C4          1.1204   -0.8150   -0.5860 C.ar      1 <0>        -0.0056
      5 C5          1.1113   -1.5257    0.6189 C.ar      1 <0>        -0.2174
      6 C6         -0.1183   -1.7642    1.2544 C.ar      1 <0>         0.4469
      7 N1         -1.2451   -1.3176    0.7212 N.ar      1 <0>        -0.4824
      8 N2         -0.1519   -2.4651    2.4465 N.pl3     1 <0>        -0.6671
      9 C7         -0.1444   -3.9300    2.4354 C.3       1 <0>         0.0751
     10 C8         -0.1950   -1.7424    3.7201 C.3       1 <0>         0.1982
     11 H1         -0.0799   -0.6743    3.5359 H         1 <0>         0.1015
     12 C9         -1.5376   -1.9997    4.4073 C.3       1 <0>        -0.1664
     13 C10         0.9239   -2.2225    4.6082 C.ar      1 <0>        -0.1202
     14 C11         1.8571   -1.3238    5.0911 C.ar      1 <0>        -0.1030
     15 C12         2.8837   -1.7633    5.9056 C.ar      1 <0>        -0.0999
     16 C13         2.9781   -3.1019    6.2376 C.ar      1 <0>        -0.0985
     17 C14         2.0448   -4.0015    5.7548 C.ar      1 <0>        -0.0339
     18 C15         1.0138   -3.5599    4.9443 C.ar      1 <0>        -0.1235
     19 Cl1         2.1628   -5.6827    6.1712 Cl        1 <0>        -0.0458
     20 C16         2.3709   -2.0163    1.2114 C.cat     1 <0>         0.6016
     21 N3          2.3571   -2.6243    2.3975 N.pl3     1 <0>        -0.7604
     22 N4          3.5223   -1.8513    0.5603 N.pl3     1 <0>        -0.7705
     23 H2         -2.7888    0.8255   -0.5973 H         1 <0>         0.0996
     24 H3         -2.5122   -0.1411   -2.0662 H         1 <0>         0.0930
     25 H4         -3.3663   -0.8563   -0.6779 H         1 <0>         0.0922
     26 H5         -0.1155    0.1741   -2.0286 H         1 <0>         0.1641
     27 H6          2.0472   -0.6135   -1.1025 H         1 <0>         0.1535
     28 H7          0.8760   -4.2892    2.5692 H         1 <0>         0.0514
     29 H8         -0.7700   -4.3027    3.2464 H         1 <0>         0.0913
     30 H9         -0.5335   -4.2882    1.4823 H         1 <0>         0.0827
     31 H10        -2.3469   -1.6524    3.7650 H         1 <0>         0.0772
     32 H11        -1.6527   -3.0678    4.5915 H         1 <0>         0.0663
     33 H12        -1.5696   -1.4620    5.3549 H         1 <0>         0.0765
     34 H13         1.7842   -0.2780    4.8314 H         1 <0>         0.1351
     35 H14         3.6123   -1.0609    6.2825 H         1 <0>         0.1431
     36 H15         3.7807   -3.4453    6.8735 H         1 <0>         0.1440
     37 H16         0.2823   -4.2610    4.5707 H         1 <0>         0.1469
     38 H17         3.1919   -2.8672    2.8277 H         1 <0>         0.4192
     39 H18         3.5323   -1.4088   -0.3028 H         1 <0>         0.4400
     40 H19         4.3502   -2.1737    0.9497 H         1 <0>         0.4323
     41 H20         1.5124   -2.8239    2.8304 H         1 <0>         0.4461
@<TRIPOS>BOND
     1    1    2 1
     2    1   23 1
     3    1   24 1
     4    1   25 1
     5    2    7 ar
     6    2    3 ar
     7    3    4 ar
     8    3   26 1
     9    4    5 ar
    10    4   27 1
    11    5    6 ar
    12    5   20 1
    13    6    7 ar
    14    6    8 1
    15    8    9 1
    16    8   10 1
    17    9   28 1
    18    9   29 1
    19    9   30 1
    20   10   11 1
    21   10   12 1
    22   10   13 1
    23   12   31 1
    24   12   32 1
    25   12   33 1
    26   13   18 ar
    27   13   14 ar
    28   14   15 ar
    29   14   34 1
    30   15   16 ar
    31   15   35 1
    32   16   17 ar
    33   16   36 1
    34   17   18 ar
    35   17   19 1
    36   18   37 1
    37   20   21 2
    38   20   22 1
    39   21   38 1
    40   21   41 1
    41   22   39 1
    42   22   40 1
@<TRIPOS>MOLECULE
ZINC63211471
   37    38     0     0     0
SMALL
USER_CHARGES

@<TRIPOS>ATOM
      1 C1         -0.1386    1.4577    0.0712 C.ar      1 <0>         0.0196
      2 C2          1.1001    2.1102    0.0654 C.ar      1 <0>        -0.1993
      3 C3          2.2659    1.3436    0.0675 C.ar      1 <0>         0.1438
      4 N1          2.2029    0.0282    0.0744 N.ar      1 <0>        -0.4700
      5 C4          1.0509   -0.6143    0.0800 C.ar      1 <0>         0.1701
      6 C5         -0.1507    0.0733    0.0788 C.ar      1 <0>        -0.1522
      7 Br1        -1.7907   -0.8681    0.0875 Br        1 <0>         0.0022
      8 C6          1.1717    3.5869    0.0567 C.2       1 <0>         0.5768
      9 O1          0.1497    4.2449    0.0545 O.2       1 <0>        -0.4932
     10 N2          2.3701    4.2035    0.0512 N.am      1 <0>        -0.7557
     11 C7          2.4411    5.6667    0.0426 C.3       1 <0>         0.1253
     12 H1          1.5837    6.0641    0.5859 H         1 <0>         0.1244
     13 C8          2.3795    6.1602   -1.4156 C.3       1 <0>        -0.1301
     14 C9          2.8693    7.6120   -1.5763 C.3       1 <0>        -0.1258
     15 C10         2.3745    8.5117   -0.4763 C.3       1 <0>        -0.1307
     16 C11         3.4504    8.5736    0.6272 C.3       1 <0>        -0.1304
     17 C12         3.4164    7.4101    1.5010 C.3       1 <0>        -0.1274
     18 C13         3.7023    6.0971    0.7413 C.3       1 <0>         0.0194
     19 H2          4.4902    6.2617    0.0062 H         1 <0>         0.1554
     20 N3          4.1188    5.0580    1.6924 N.4       1 <0>        -0.6347
     21 H3         -1.0608    2.0198    0.0742 H         1 <0>         0.1627
     22 H4          3.2285    1.8334    0.0631 H         1 <0>         0.1570
     23 H5          1.0449   -1.6943    0.0855 H         1 <0>         0.1798
     24 H6          3.1857    3.6784    0.0529 H         1 <0>         0.3912
     25 H7          2.9989    5.5099   -2.0332 H         1 <0>         0.0770
     26 H8          1.3490    6.0962   -1.7652 H         1 <0>         0.0878
     27 H9          3.9593    7.6188   -1.5739 H         1 <0>         0.0664
     28 H10         2.5183    7.9988   -2.5330 H         1 <0>         0.0796
     29 H11         2.1985    9.5118   -0.8725 H         1 <0>         0.0810
     30 H12         1.4491    8.1102   -0.0633 H         1 <0>         0.0731
     31 H13         4.4329    8.6349    0.1592 H         1 <0>         0.0754
     32 H14         3.2903    9.4699    1.2264 H         1 <0>         0.0885
     33 H15         4.1641    7.5350    2.2843 H         1 <0>         0.0917
     34 H16         2.4314    7.3445    1.9632 H         1 <0>         0.0939
     35 H17         4.3981    4.2311    1.1861 H         1 <0>         0.4291
     36 H18         4.8960    5.3955    2.2403 H         1 <0>         0.4413
     37 H19         3.3484    4.8336    2.3041 H         1 <0>         0.4368
@<TRIPOS>BOND
     1    1    6 ar
     2    1    2 ar
     3    1   21 1
     4    2    3 ar
     5    2    8 1
     6    3    4 ar
     7    3   22 1
     8    4    5 ar
     9    5    6 ar
    10    5   23 1
    11    6    7 1
    12    8    9 2
    13    8   10 am
    14   10   11 1
    15   10   24 1
    16   11   12 1
    17   11   18 1
    18   11   13 1
    19   13   14 1
    20   13   25 1
    21   13   26 1
    22   14   15 1
    23   14   27 1
    24   14   28 1
    25   15   16 1
    26   15   29 1
    27   15   30 1
    28   16   17 1
    29   16   31 1
    30   16   32 1
    31   17   18 1
    32   17   33 1
    33   17   34 1
    34   18   19 1
    35   18   20 1
    36   20   35 1
    37   20   36 1
    38   20   37 1
@<TRIPOS>MOLECULE
ZINC05214267
   35    37     0     0     0
SMALL
USER_CHARGES
5-[(4-hydroxyphenyl)methylene]-3-(o-tolyl)thiazolidine-2,4-dione
@<TRIPOS>ATOM
      1 C1         -1.3525    0.1454    3.3475 C.3       1 <0>        -0.1185
      2 C2         -1.9771   -0.5322    2.1551 C.ar      1 <0>        -0.0590
      3 C3         -3.1958   -1.1701    2.2821 C.ar      1 <0>        -0.1120
      4 C4         -3.7665   -1.7972    1.1900 C.ar      1 <0>        -0.0955
      5 C5         -3.1227   -1.7823   -0.0339 C.ar      1 <0>        -0.1151
      6 C6         -1.9071   -1.1409   -0.1685 C.ar      1 <0>        -0.0893
      7 C7         -1.3313   -0.5106    0.9265 C.ar      1 <0>         0.0937
      8 N1         -0.0976    0.1412    0.7931 N.am      1 <0>        -0.5313
      9 C8         -0.0754    1.4197    0.4560 C.2       1 <0>         0.5580
     10 O1         -1.0995    2.0453    0.2535 O.2       1 <0>        -0.4567
     11 C9          1.2545    2.0483    0.3317 C.2       1 <0>        -0.2149
     12 C10         1.5812    3.3244    0.0048 C.2       1 <0>         0.0782
     13 C11         2.9755    3.7740    0.1048 C.ar      1 <0>        -0.1083
     14 C12         3.9370    2.9532    0.7072 C.ar      1 <0>        -0.0684
     15 C13         5.2438    3.3775    0.7934 C.ar      1 <0>        -0.1442
     16 C14         5.6075    4.6226    0.2933 C.ar      1 <0>         0.1375
     17 C15         4.6560    5.4438   -0.3005 C.ar      1 <0>        -0.1498
     18 C16         3.3474    5.0275   -0.3969 C.ar      1 <0>        -0.0582
     19 O2          6.8967    5.0382    0.3857 O.3       1 <0>        -0.4966
     20 S1          2.3165    0.6665    0.7298 S.3       1 <0>        -0.0329
     21 C17         1.0399   -0.5498    1.0109 C.2       1 <0>         0.5279
     22 O3          1.1656   -1.7186    1.3232 O.2       1 <0>        -0.4069
     23 H1         -1.6889    1.1811    3.3944 H         1 <0>         0.0781
     24 H2         -1.6500   -0.3748    4.2581 H         1 <0>         0.0787
     25 H3         -0.2670    0.1199    3.2527 H         1 <0>         0.0576
     26 H4         -3.7009   -1.1834    3.2366 H         1 <0>         0.1338
     27 H5         -4.7170   -2.2994    1.2928 H         1 <0>         0.1326
     28 H6         -3.5709   -2.2730   -0.8852 H         1 <0>         0.1339
     29 H7         -1.4046   -1.1299   -1.1245 H         1 <0>         0.1267
     30 H8          0.8156    4.0092   -0.3288 H         1 <0>         0.1657
     31 H9          3.6548    1.9875    1.0997 H         1 <0>         0.1376
     32 H10         5.9871    2.7437    1.2541 H         1 <0>         0.1393
     33 H11         4.9440    6.4102   -0.6874 H         1 <0>         0.1392
     34 H12         2.6090    5.6661   -0.8587 H         1 <0>         0.1406
     35 H13         7.0960    5.5245    1.1975 H         1 <0>         0.3985
@<TRIPOS>BOND
     1    1    2 1
     2    1   23 1
     3    1   24 1
     4    1   25 1
     5    2    7 ar
     6    2    3 ar
     7    3    4 ar
     8    3   26 1
     9    4    5 ar
    10    4   27 1
    11    5    6 ar
    12    5   28 1
    13    6    7 ar
    14    6   29 1
    15    7    8 1
    16    8   21 am
    17    8    9 am
    18    9   10 2
    19    9   11 1
    20   11   12 2
    21   11   20 1
    22   12   13 1
    23   12   30 1
    24   13   18 ar
    25   13   14 ar
    26   14   15 ar
    27   14   31 1
    28   15   16 ar
    29   15   32 1
    30   16   17 ar
    31   16   19 1
    32   17   18 ar
    33   17   33 1
    34   18   34 1
    35   19   35 1
    36   20   21 1
    37   21   22 2
@<TRIPOS>MOLECULE
ZINC10251930
   29    31     0     0     0
SMALL
USER_CHARGES
N-(4-bromobenzothiazol-2-yl)tetrahydrofuran-2-carboxamide
@<TRIPOS>ATOM
      1 C1         -8.0191    5.1316    5.6168 C.ar      1 <0>        -0.0976
      2 C2         -7.5430    5.7815    4.4926 C.ar      1 <0>        -0.0455
      3 C3         -6.4600    5.2707    3.8220 C.ar      1 <0>        -0.1486
      4 C4         -5.7951    4.0923    4.2315 C.ar      1 <0>         0.1286
      5 C5         -6.3085    3.4544    5.3850 C.ar      1 <0>        -0.0471
      6 C6         -7.3914    3.9725    6.0484 C.ar      1 <0>        -0.0764
      7 Br1        -5.4928    1.8708    6.0193 Br        1 <0>        -0.0221
      8 N1         -4.7492    3.7143    3.4651 N.2       1 <0>        -0.5005
      9 C7         -4.3616    4.3976    2.4136 C.2       1 <0>         0.3831
     10 S1         -5.5335    5.7467    2.3826 S.3       1 <0>         0.0192
     11 N2         -3.3143    4.1362    1.5451 N.am      1 <0>        -0.6155
     12 C8         -2.5328    3.0552    1.7379 C.2       1 <0>         0.5089
     13 O1         -2.7463    2.3113    2.6715 O.2       1 <0>        -0.4310
     14 C9         -1.3936    2.7709    0.7932 C.3       1 <0>         0.0672
     15 H1         -0.7020    3.6129    0.7633 H         1 <0>         0.1073
     16 C10        -1.9281    2.4530   -0.6265 C.3       1 <0>        -0.1482
     17 C11        -0.7781    1.6063   -1.2241 C.3       1 <0>        -0.1537
     18 C12        -0.0127    1.0858    0.0080 C.3       1 <0>         0.0426
     19 O2         -0.7045    1.5588    1.1759 O.3       1 <0>        -0.3449
     20 H2         -8.8710    5.5227    6.1532 H         1 <0>         0.1496
     21 H3         -8.0207    6.6854    4.1445 H         1 <0>         0.1416
     22 H4         -7.7639    3.4662    6.9266 H         1 <0>         0.1450
     23 H5         -3.1434    4.7312    0.7983 H         1 <0>         0.4303
     24 H6         -2.0763    3.3679   -1.2003 H         1 <0>         0.0936
     25 H7         -2.8507    1.8748   -0.5749 H         1 <0>         0.0861
     26 H8         -0.1292    2.2265   -1.8424 H         1 <0>         0.0834
     27 H9         -1.1762    0.7745   -1.8053 H         1 <0>         0.0852
     28 H10         0.0021   -0.0041    0.0020 H         1 <0>         0.0921
     29 H11         1.0072    1.4702    0.0003 H         1 <0>         0.0671
@<TRIPOS>BOND
     1    1    6 ar
     2    1    2 ar
     3    1   20 1
     4    2    3 ar
     5    2   21 1
     6    3   10 1
     7    3    4 ar
     8    4    5 ar
     9    4    8 1
    10    5    6 ar
    11    5    7 1
    12    6   22 1
    13    8    9 2
    14    9   10 1
    15    9   11 1
    16   11   12 am
    17   11   23 1
    18   12   13 2
    19   12   14 1
    20   14   15 1
    21   14   19 1
    22   14   16 1
    23   16   17 1
    24   16   24 1
    25   16   25 1
    26   17   18 1
    27   17   26 1
    28   17   27 1
    29   18   19 1
    30   18   28 1
    31   18   29 1
@<TRIPOS>MOLECULE
ZINC37579830
   42    43     0     0     0
SMALL
USER_CHARGES

@<TRIPOS>ATOM
      1 C1          7.3053    2.1627   -2.1285 C.ar      1 <0>        -0.1157
      2 C2          6.2205    1.8193   -1.3481 C.ar      1 <0>        -0.0183
      3 C3          5.2718    2.7712   -1.0198 C.ar      1 <0>        -0.6753
      4 C4          5.4037    4.0723   -1.4709 C.ar      1 <0>        -0.0172
      5 C5          6.4835    4.4285   -2.2524 C.ar      1 <0>        -0.1183
      6 C6          7.4442    3.4733   -2.5867 C.ar      1 <0>         0.0743
      7 C7          8.5679    3.8366   -3.3967 C.1       1 <0>        -0.1341
      8 C8          9.4891    4.1344   -4.0607 C.1       1 <0>        -0.1330
      9 C9         10.6442    4.5077   -4.8932 C.3       1 <0>         0.1878
     10 O1         10.5593    5.8935   -5.2318 O.3       1 <0>        -0.5668
     11 S1          3.8891    2.3242   -0.0232 S.o2      1 <0>         2.6890
     12 O2          2.8613    3.2624   -0.3104 O.2       1 <0>        -0.9491
     13 O3          3.7088    0.9238   -0.1833 O.2       1 <0>        -0.9509
     14 N1          4.3246    2.5679    1.5559 N.pl3     1 <0>        -0.9910
     15 C10         3.9558    3.8127    2.2442 C.3       1 <0>         0.1246
     16 C11         2.4453    3.8447    2.4395 C.3       1 <0>        -0.1615
     17 C12         2.0561    2.8366    3.5339 C.3       1 <0>        -0.1248
     18 C13         2.0708    1.4270    2.9536 C.3       1 <0>        -0.1191
     19 C14         3.1871    0.5843    3.5973 C.3       1 <0>        -0.1210
     20 C15         4.4726    1.4078    3.6791 C.3       1 <0>        -0.1417
     21 C16         5.0703    1.5503    2.2774 C.3       1 <0>         0.1126
     22 H1          8.0476    1.4198   -2.3804 H         1 <0>         0.1395
     23 H2          6.1116    0.8052   -0.9931 H         1 <0>         0.1463
     24 H3          4.6596    4.8107   -1.2111 H         1 <0>         0.1466
     25 H4          6.5850    5.4444   -2.6046 H         1 <0>         0.1387
     26 H5         11.5653    4.3248   -4.3398 H         1 <0>         0.0795
     27 H6         10.6433    3.9102   -5.8049 H         1 <0>         0.0797
     28 H7         11.2897    6.2097   -5.7810 H         1 <0>         0.3924
     29 H8          4.4497    3.8526    3.2151 H         1 <0>         0.0932
     30 H9          4.2637    4.6674    1.6418 H         1 <0>         0.0718
     31 H10         2.1380    4.8462    2.7408 H         1 <0>         0.0781
     32 H11         1.9515    3.5769    1.5053 H         1 <0>         0.0914
     33 H12         2.7696    2.8988    4.3556 H         1 <0>         0.0723
     34 H13         1.0565    3.0677    3.9021 H         1 <0>         0.0626
     35 H14         1.1082    0.9513    3.1417 H         1 <0>         0.0610
     36 H15         2.2385    1.4833    1.8780 H         1 <0>         0.0482
     37 H16         2.8833    0.2857    4.6006 H         1 <0>         0.0637
     38 H17         3.3642   -0.3053    2.9930 H         1 <0>         0.0672
     39 H18         4.2468    2.3953    4.0816 H         1 <0>         0.0856
     40 H19         5.1862    0.9039    4.3310 H         1 <0>         0.0742
     41 H20         4.9982    0.5992    1.7498 H         1 <0>         0.0916
     42 H21         6.1158    1.8483    2.3563 H         1 <0>         0.0656
@<TRIPOS>BOND
     1    1    6 ar
     2    1    2 ar
     3    1   22 1
     4    2    3 ar
     5    2   23 1
     6    3    4 ar
     7    3   11 1
     8    4    5 ar
     9    4   24 1
    10    5    6 ar
    11    5   25 1
    12    6    7 1
    13    7    8 3
    14    8    9 1
    15    9   10 1
    16    9   26 1
    17    9   27 1
    18   10   28 1
    19   11   12 2
    20   11   13 2
    21   11   14 1
    22   14   21 1
    23   14   15 1
    24   15   16 1
    25   15   29 1
    26   15   30 1
    27   16   17 1
    28   16   31 1
    29   16   32 1
    30   17   18 1
    31   17   33 1
    32   17   34 1
    33   18   19 1
    34   18   35 1
    35   18   36 1
    36   19   20 1
    37   19   37 1
    38   19   38 1
    39   20   21 1
    40   20   39 1
    41   20   40 1
    42   21   41 1
    43   21   42 1
@<TRIPOS>MOLECULE
ZINC58118521
   33    35     0     0     0
SMALL
USER_CHARGES

@<TRIPOS>ATOM
      1 C1         -0.0178    1.4608    0.0101 C.3       1 <0>         0.0938
      2 N1          0.0021   -0.0041    0.0020 N.am      1 <0>        -0.5392
      3 C2         -1.1165   -0.8349    0.0026 C.ar      1 <0>         0.1028
      4 C3         -2.4817   -0.5921    0.0113 C.ar      1 <0>        -0.0789
      5 C4         -3.3684   -1.6508    0.0101 C.ar      1 <0>        -0.0997
      6 C5         -2.8995   -2.9545    0.0008 C.ar      1 <0>        -0.0126
      7 C6         -1.5405   -3.2057   -0.0074 C.ar      1 <0>        -0.0914
      8 C7         -0.6434   -2.1484   -0.0072 C.ar      1 <0>         0.1077
      9 N2          0.7475   -2.0754   -0.0135 N.am      1 <0>        -0.5391
     10 C8          1.1043   -0.7771   -0.0131 C.2       1 <0>         0.6807
     11 O1          2.2492   -0.3650   -0.0219 O.2       1 <0>        -0.5450
     12 C9          1.6658   -3.2168   -0.0245 C.3       1 <0>         0.0968
     13 Cl1        -4.0234   -4.2776    0.0001 Cl        1 <0>        -0.0484
     14 C10        -4.8521   -1.3870    0.0195 C.3       1 <0>         0.2412
     15 H1         -5.3604   -2.1489   -0.5714 H         1 <0>         0.1370
     16 C11        -5.3608   -1.4289    1.4375 C.2       1 <0>        -0.1819
     17 C12        -5.9122   -2.4644    2.1163 C.2       1 <0>        -0.1349
     18 C13        -6.3108   -2.2713    3.4257 C.2       1 <0>        -0.1572
     19 C14        -6.1386   -1.0520    3.9922 C.2       1 <0>        -0.1643
     20 S1         -5.3864   -0.1295    2.6615 S.3       1 <0>         0.0434
     21 O2         -5.1103   -0.0983   -0.5413 O.3       1 <0>        -0.5356
     22 H2          1.0048    1.8381    0.0023 H         1 <0>         0.0978
     23 H3         -0.5450    1.8219   -0.8730 H         1 <0>         0.0781
     24 H4         -0.5280    1.8123    0.9069 H         1 <0>         0.0776
     25 H5         -2.8508    0.4228    0.0192 H         1 <0>         0.1399
     26 H6         -1.1782   -4.2231   -0.0146 H         1 <0>         0.1461
     27 H7          1.8886   -3.4939   -1.0548 H         1 <0>         0.0737
     28 H8          2.5895   -2.9449    0.4865 H         1 <0>         0.0911
     29 H9          1.2026   -4.0607    0.4867 H         1 <0>         0.0859
     30 H10        -6.0385   -3.4260    1.6411 H         1 <0>         0.1351
     31 H11        -6.7533   -3.0797    3.9888 H         1 <0>         0.1366
     32 H12        -6.3879   -0.7246    4.9907 H         1 <0>         0.1877
     33 H13        -4.6881    0.6297   -0.0651 H         1 <0>         0.3750
@<TRIPOS>BOND
     1    1    2 1
     2    1   22 1
     3    1   23 1
     4    1   24 1
     5    2   10 am
     6    2    3 1
     7    3    8 ar
     8    3    4 ar
     9    4    5 ar
    10    4   25 1
    11    5    6 ar
    12    5   14 1
    13    6    7 ar
    14    6   13 1
    15    7    8 ar
    16    7   26 1
    17    8    9 1
    18    9   10 am
    19    9   12 1
    20   10   11 2
    21   12   27 1
    22   12   28 1
    23   12   29 1
    24   14   15 1
    25   14   16 1
    26   14   21 1
    27   16   20 1
    28   16   17 2
    29   17   18 1
    30   17   30 1
    31   18   19 2
    32   18   31 1
    33   19   20 1
    34   19   32 1
    35   21   33 1
@<TRIPOS>MOLECULE
ZINC63525649
   31    33     0     0     0
SMALL
USER_CHARGES

@<TRIPOS>ATOM
      1 C1         -0.0272    1.4706   -0.2173 C.3       1 <0>        -0.1104
      2 C2         -0.0261   -0.0364   -0.2202 C.2       1 <0>         0.0111
      3 C3         -1.1073   -0.7985   -0.0237 C.2       1 <0>        -0.1473
      4 C4         -2.4898   -0.3387    0.2510 C.3       1 <0>         0.0318
      5 H1         -3.1703   -0.8259   -0.4474 H         1 <0>         0.1210
      6 S1         -3.0098   -0.7183    1.9372 S.3       1 <0>        -0.1586
      7 C5         -3.1243   -2.5147    2.0165 C.3       1 <0>        -0.1121
      8 C6         -1.8024   -3.1683    1.8287 C.2       1 <0>         0.5240
      9 O1         -1.6208   -4.0761    2.6122 O.2       1 <0>        -0.5521
     10 N1         -0.8117   -3.0022    1.0384 N.am      1 <0>        -0.6633
     11 C7         -0.5843   -2.2080   -0.1327 C.3       1 <0>         0.1992
     12 H2         -1.0326   -2.6971   -0.9976 H         1 <0>         0.1462
     13 N2          0.8536   -2.0196   -0.3868 N.2       1 <0>        -0.1461
     14 N3          1.0671   -0.8044   -0.4276 N.2       1 <0>        -0.1236
     15 C8         -2.5603    1.1522    0.0428 C.ar      1 <0>        -0.0593
     16 C9         -2.8812    1.6617   -1.2015 C.ar      1 <0>        -0.0966
     17 C10        -2.9463    3.0291   -1.3928 C.ar      1 <0>        -0.0876
     18 C11        -2.6903    3.8876   -0.3389 C.ar      1 <0>        -0.0792
     19 C12        -2.3693    3.3773    0.9060 C.ar      1 <0>        -0.0869
     20 C13        -2.3095    2.0098    1.0977 C.ar      1 <0>        -0.0914
     21 Br1        -2.7787    5.7584   -0.6001 Br        1 <0>        -0.0390
     22 H3          0.9612    1.8352   -0.4969 H         1 <0>         0.0813
     23 H4         -0.7646    1.8347   -0.9327 H         1 <0>         0.0933
     24 H5         -0.2791    1.8318    0.7798 H         1 <0>         0.0928
     25 H6         -3.5261   -2.8013    2.9883 H         1 <0>         0.1583
     26 H7         -3.8042   -2.8608    1.2380 H         1 <0>         0.1201
     27 H8         -0.0392   -3.5333    1.2877 H         1 <0>         0.4146
     28 H9         -3.0806    0.9913   -2.0244 H         1 <0>         0.1360
     29 H10        -3.1966    3.4271   -2.3651 H         1 <0>         0.1403
     30 H11        -2.1694    4.0473    1.7292 H         1 <0>         0.1408
     31 H12        -2.0629    1.6112    2.0707 H         1 <0>         0.1424
@<TRIPOS>BOND
     1    1    2 1
     2    1   22 1
     3    1   23 1
     4    1   24 1
     5    2   14 1
     6    2    3 2
     7    3   11 1
     8    3    4 1
     9    4    5 1
    10    4    6 1
    11    4   15 1
    12    6    7 1
    13    7    8 1
    14    7   25 1
    15    7   26 1
    16    8    9 2
    17    8   10 am
    18   10   11 1
    19   10   27 1
    20   11   12 1
    21   11   13 1
    22   13   14 2
    23   15   20 ar
    24   15   16 ar
    25   16   17 ar
    26   16   28 1
    27   17   18 ar
    28   17   29 1
    29   18   19 ar
    30   18   21 1
    31   19   20 ar
    32   19   30 1
    33   20   31 1
@<TRIPOS>MOLECULE
ZINC02876363
   52    56     0     0     0
SMALL
USER_CHARGES
4-(3,4-dihydro-1H-isoquinolin-2-ylcarbonylmethylsulfanyl)-3-(2-furylmethyl)-8-methyl-7-thia-3,5-diazabicyclo[4.3.0]nona-4,8,10-trien-2-one
@<TRIPOS>ATOM
      1 C1         -8.0823    0.4123    0.0829 C.3       1 <0>        -0.0693
      2 C2         -6.5857    0.2363    0.0680 C.2       1 <0>        -0.1566
      3 C3         -5.8835   -0.9062    0.0552 C.2       1 <0>        -0.0896
      4 C4         -4.4320   -0.8469    0.0412 C.2       1 <0>        -0.2533
      5 C5         -3.8909    0.4528    0.0425 C.2       1 <0>         0.1185
      6 S1         -5.3254    1.4972    0.0620 S.3       1 <0>         0.1373
      7 N1         -2.5815    0.6707    0.0358 N.2       1 <0>        -0.5026
      8 C6         -1.7288   -0.3336    0.0168 C.2       1 <0>         0.3599
      9 N2         -2.1682   -1.6258    0.0140 N.am      1 <0>        -0.5099
     10 C7         -3.4821   -1.9164    0.0259 C.2       1 <0>         0.5636
     11 O1         -3.8579   -3.0760    0.0233 O.2       1 <0>        -0.5142
     12 C8         -1.1910   -2.7171   -0.0017 C.3       1 <0>         0.1731
     13 C9         -0.8418   -3.0991    1.4137 C.2       1 <0>        -0.0606
     14 C10        -1.4757   -4.0226    2.1584 C.2       1 <0>        -0.1619
     15 C11        -0.8209   -4.0588    3.4109 C.2       1 <0>        -0.2209
     16 C12         0.1689   -3.1493    3.3595 C.2       1 <0>        -0.0197
     17 O2          0.1515   -2.5711    2.1475 O.3       1 <0>        -0.1617
     18 S2          0.0021   -0.0041    0.0020 S.3       1 <0>         0.1189
     19 C13        -0.0225    1.8057    0.0120 C.3       1 <0>        -0.1592
     20 C14         1.3913    2.3274    0.0013 C.2       1 <0>         0.5406
     21 O3          2.3237    1.5519   -0.0118 O.2       1 <0>        -0.5202
     22 N3          1.6196    3.6556    0.0062 N.am      1 <0>        -0.6049
     23 C15         2.9886    4.1977   -0.0039 C.3       1 <0>         0.1128
     24 C16         3.1807    4.9632   -1.3121 C.3       1 <0>        -0.0987
     25 C17         2.0170    5.8835   -1.5708 C.ar      1 <0>        -0.0690
     26 C18         2.2107    6.9321   -2.4621 C.ar      1 <0>        -0.1188
     27 C19         1.1845    7.8073   -2.7497 C.ar      1 <0>        -0.1140
     28 C20        -0.0496    7.6412   -2.1489 C.ar      1 <0>        -0.1187
     29 C21        -0.2441    6.6028   -1.2617 C.ar      1 <0>        -0.1110
     30 C22         0.7899    5.7242   -0.9675 C.ar      1 <0>        -0.1018
     31 C23         0.5142    4.6199    0.0158 C.3       1 <0>         0.1458
     32 H1         -8.4335    0.4491    1.1141 H         1 <0>         0.0820
     33 H2         -8.3440    1.3414   -0.4234 H         1 <0>         0.0772
     34 H3         -8.5519   -0.4264   -0.4311 H         1 <0>         0.0851
     35 H4         -6.3912   -1.8594    0.0550 H         1 <0>         0.1438
     36 H5         -1.6167   -3.5787   -0.5160 H         1 <0>         0.1404
     37 H6         -0.2907   -2.3912   -0.5226 H         1 <0>         0.1159
     38 H7         -2.3212   -4.6231    1.8566 H         1 <0>         0.1534
     39 H8         -1.0702   -4.6919    4.2495 H         1 <0>         0.1518
     40 H9          0.8605   -2.9227    4.1575 H         1 <0>         0.2073
     41 H10        -0.5497    2.1668   -0.8711 H         1 <0>         0.1334
     42 H11        -0.5327    2.1573    0.9088 H         1 <0>         0.1338
     43 H12         3.1245    4.8721    0.8415 H         1 <0>         0.0800
     44 H13         3.7088    3.3816    0.0550 H         1 <0>         0.1029
     45 H14         4.0964    5.5515   -1.2520 H         1 <0>         0.0906
     46 H15         3.2646    4.2526   -2.1343 H         1 <0>         0.0829
     47 H16         3.1738    7.0633   -2.9330 H         1 <0>         0.1232
     48 H17         1.3442    8.6199   -3.4430 H         1 <0>         0.1242
     49 H18        -0.8579    8.3216   -2.3730 H         1 <0>         0.1255
     50 H19        -1.2081    6.4721   -0.7926 H         1 <0>         0.1257
     51 H20        -0.4112    4.1135   -0.2583 H         1 <0>         0.0984
     52 H21         0.4124    5.0450    1.0143 H         1 <0>         0.0884
@<TRIPOS>BOND
     1    1    2 1
     2    1   32 1
     3    1   33 1
     4    1   34 1
     5    2    6 1
     6    2    3 2
     7    3    4 1
     8    3   35 1
     9    4   10 1
    10    4    5 2
    11    5    6 1
    12    5    7 1
    13    7    8 2
    14    8    9 1
    15    8   18 1
    16    9   10 am
    17    9   12 1
    18   10   11 2
    19   12   13 1
    20   12   36 1
    21   12   37 1
    22   13   17 1
    23   13   14 2
    24   14   15 1
    25   14   38 1
    26   15   16 2
    27   15   39 1
    28   16   17 1
    29   16   40 1
    30   18   19 1
    31   19   20 1
    32   19   41 1
    33   19   42 1
    34   20   21 2
    35   20   22 am
    36   22   31 1
    37   22   23 1
    38   23   24 1
    39   23   43 1
    40   23   44 1
    41   24   25 1
    42   24   45 1
    43   24   46 1
    44   25   30 ar
    45   25   26 ar
    46   26   27 ar
    47   26   47 1
    48   27   28 ar
    49   27   48 1
    50   28   29 ar
    51   28   49 1
    52   29   30 ar
    53   29   50 1
    54   30   31 1
    55   31   51 1
    56   31   52 1
@<TRIPOS>MOLECULE
ZINC10820703
   48    52     0     0     0
SMALL
USER_CHARGES
N-(2-furylmethyl)-N-(4-methylsulfanylbenzothiazol-2-yl)-7,10-dioxabicyclo[4.4.0]deca-2,4,11-triene-8-carboxamide
@<TRIPOS>ATOM
      1 C1         -2.7609    6.1320   -6.4117 C.3       1 <0>        -0.1674
      2 S1         -2.4537    4.8143   -5.2034 S.3       1 <0>        -0.0415
      3 C2         -1.0243    5.3613   -4.3304 C.ar      1 <0>        -0.0363
      4 C3         -0.4368    6.5617   -4.6660 C.ar      1 <0>        -0.1290
      5 C4          0.6885    7.0259   -4.0026 C.ar      1 <0>        -0.0716
      6 C5          1.2351    6.2691   -2.9821 C.ar      1 <0>        -0.0716
      7 C6          0.6581    5.0701   -2.6386 C.ar      1 <0>        -0.1310
      8 C7         -0.4877    4.5611   -3.2874 C.ar      1 <0>         0.1124
      9 N1         -0.9331    3.3668   -2.8390 N.2       1 <0>        -0.5326
     10 C8         -0.3511    2.7210   -1.8565 C.2       1 <0>         0.3509
     11 S2          1.0032    3.8087   -1.4357 S.3       1 <0>         0.0636
     12 N2         -0.6953    1.5022   -1.2924 N.am      1 <0>        -0.5002
     13 C9          0.1745    0.8894   -0.2853 C.3       1 <0>         0.1956
     14 C10        -0.2434    1.3508    1.0871 C.2       1 <0>        -0.0661
     15 C11        -1.1499    0.7483    1.8775 C.2       1 <0>        -0.1603
     16 C12        -1.2292    1.5112    3.0652 C.2       1 <0>        -0.2193
     17 C13        -0.3725    2.5389    2.9262 C.2       1 <0>        -0.0197
     18 O1          0.2218    2.4366    1.7262 O.3       1 <0>        -0.1674
     19 C14        -1.8301    0.8811   -1.6705 C.2       1 <0>         0.5408
     20 O2         -2.1761   -0.1402   -1.1156 O.2       1 <0>        -0.4618
     21 C15        -2.6689    1.4557   -2.7828 C.3       1 <0>         0.0450
     22 H1         -2.0253    1.7641   -3.6067 H         1 <0>         0.1377
     23 C16        -3.4596    2.6641   -2.2633 C.3       1 <0>         0.0508
     24 O3         -4.2544    3.1754   -3.3388 O.3       1 <0>        -0.2746
     25 C17        -4.9495    2.2642   -4.0731 C.ar      1 <0>         0.0566
     26 C18        -5.9954    2.6930   -4.8768 C.ar      1 <0>        -0.1137
     27 C19        -6.7081    1.7803   -5.6311 C.ar      1 <0>        -0.1148
     28 C20        -6.3808    0.4378   -5.5867 C.ar      1 <0>        -0.1178
     29 C21        -5.3407    0.0038   -4.7869 C.ar      1 <0>        -0.1100
     30 C22        -4.6219    0.9144   -4.0267 C.ar      1 <0>         0.0505
     31 O4         -3.6022    0.4716   -3.2414 O.3       1 <0>        -0.2899
     32 H2         -1.8947    6.2347   -7.0654 H         1 <0>         0.0837
     33 H3         -3.6382    5.8810   -7.0078 H         1 <0>         0.1115
     34 H4         -2.9343    7.0721   -5.8879 H         1 <0>         0.0851
     35 H5         -0.8624    7.1538   -5.4628 H         1 <0>         0.1354
     36 H6          1.1342    7.9697   -4.2800 H         1 <0>         0.1436
     37 H7          2.1118    6.6190   -2.4574 H         1 <0>         0.1383
     38 H8          0.0910   -0.1957   -0.3448 H         1 <0>         0.1413
     39 H9          1.2075    1.1850   -0.4691 H         1 <0>         0.1118
     40 H10        -1.7082   -0.1476    1.6495 H         1 <0>         0.1548
     41 H11        -1.8598    1.3099    3.9185 H         1 <0>         0.1525
     42 H12        -0.1932    3.3148    3.6558 H         1 <0>         0.2071
     43 H13        -4.1075    2.3546   -1.4433 H         1 <0>         0.0707
     44 H14        -2.7696    3.4336   -1.9171 H         1 <0>         0.1262
     45 H15        -6.2530    3.7412   -4.9134 H         1 <0>         0.1335
     46 H16        -7.5218    2.1164   -6.2566 H         1 <0>         0.1312
     47 H17        -6.9390   -0.2730   -6.1780 H         1 <0>         0.1320
     48 H18        -5.0870   -1.0455   -4.7541 H         1 <0>         0.1341
@<TRIPOS>BOND
     1    1    2 1
     2    1   32 1
     3    1   33 1
     4    1   34 1
     5    2    3 1
     6    3    8 ar
     7    3    4 ar
     8    4    5 ar
     9    4   35 1
    10    5    6 ar
    11    5   36 1
    12    6    7 ar
    13    6   37 1
    14    7   11 1
    15    7    8 ar
    16    8    9 1
    17    9   10 2
    18   10   11 1
    19   10   12 1
    20   12   13 1
    21   12   19 am
    22   13   14 1
    23   13   38 1
    24   13   39 1
    25   14   18 1
    26   14   15 2
    27   15   16 1
    28   15   40 1
    29   16   17 2
    30   16   41 1
    31   17   18 1
    32   17   42 1
    33   19   20 2
    34   19   21 1
    35   21   22 1
    36   21   31 1
    37   21   23 1
    38   23   24 1
    39   23   43 1
    40   23   44 1
    41   24   25 1
    42   25   30 ar
    43   25   26 ar
    44   26   27 ar
    45   26   45 1
    46   27   28 ar
    47   27   46 1
    48   28   29 ar
    49   28   47 1
    50   29   30 ar
    51   29   48 1
    52   30   31 1
@<TRIPOS>MOLECULE
ZINC22977209
   44    47     0     0     0
SMALL
USER_CHARGES
(6-chloro-3-pyridyl)methyl 6-(2,5-dimethyl-3-thienyl)-3-methyl-isoxazolo[5,4-b]pyridine-4-carboxylate
@<TRIPOS>ATOM
      1 C1          0.9823    1.3105    7.6739 C.3       1 <0>        -0.0746
      2 C2         -0.3566    1.9869    7.5302 C.2       1 <0>        -0.1575
      3 C3         -1.0044    2.3530    6.4020 C.2       1 <0>        -0.1368
      4 C4         -2.2470    2.9701    6.5394 C.2       1 <0>        -0.1259
      5 C5         -2.7338    3.1730    7.7996 C.2       1 <0>        -0.1036
      6 S1         -1.4893    2.5068    8.8056 S.3       1 <0>         0.1196
      7 C6         -4.0329    3.8152    8.2130 C.3       1 <0>        -0.0667
      8 C7         -3.0168    3.4000    5.3499 C.ar      1 <0>         0.2711
      9 C8         -2.4854    3.1812    4.0746 C.ar      1 <0>        -0.1406
     10 C9         -3.2123    3.5864    2.9600 C.ar      1 <0>         0.0087
     11 C10        -4.4601    4.2098    3.1756 C.ar      1 <0>        -0.2111
     12 C11        -5.4887    4.7505    2.2894 C.2       1 <0>         0.1549
     13 N1         -6.4477    5.2027    3.0395 N.2       1 <0>        -0.2710
     14 O1         -6.1282    4.9927    4.4000 O.3       1 <0>        -0.0769
     15 C12        -4.9260    4.3878    4.4895 C.ar      1 <0>         0.3034
     16 N2         -4.1942    3.9834    5.5157 N.ar      1 <0>        -0.4578
     17 C13        -5.4422    4.7833    0.7835 C.3       1 <0>        -0.0782
     18 C14        -2.6911    3.3760    1.5920 C.2       1 <0>         0.5111
     19 O2         -3.2648    3.8680    0.6413 O.2       1 <0>        -0.4780
     20 O3         -1.5801    2.6388    1.4004 O.3       1 <0>        -0.3423
     21 C15        -1.1261    2.4744    0.0311 C.3       1 <0>         0.1135
     22 C16         0.1198    1.6267    0.0133 C.ar      1 <0>        -0.1535
     23 C17         0.0287    0.2472   -0.0993 C.ar      1 <0>        -0.0340
     24 C18         1.2005   -0.4921   -0.1173 C.ar      1 <0>        -0.1562
     25 C19         2.4143    0.1660   -0.0230 C.ar      1 <0>         0.1867
     26 N3          2.4623    1.4803    0.0830 N.ar      1 <0>        -0.4775
     27 C20         1.3667    2.2146    0.1033 C.ar      1 <0>         0.1484
     28 Cl1         3.8902   -0.7479   -0.0448 Cl        1 <0>        -0.0204
     29 H1          1.4120    1.1325    6.6771 H         1 <0>         0.0831
     30 H2          0.8539    0.3501    8.1947 H         1 <0>         0.0791
     31 H3          1.6583    1.9552    8.2548 H         1 <0>         0.0793
     32 H4         -0.5745    2.1735    5.4277 H         1 <0>         0.1415
     33 H5         -4.1086    3.8160    9.3104 H         1 <0>         0.0688
     34 H6         -4.8740    3.2479    7.7878 H         1 <0>         0.0916
     35 H7         -4.0643    4.8505    7.8425 H         1 <0>         0.0915
     36 H8         -1.5238    2.7037    3.9569 H         1 <0>         0.1648
     37 H9         -6.3604    5.2509    0.3984 H         1 <0>         0.0785
     38 H10        -5.3636    3.7566    0.3967 H         1 <0>         0.0988
     39 H11        -4.5687    5.3663    0.4563 H         1 <0>         0.1101
     40 H12        -1.9129    1.9823   -0.5595 H         1 <0>         0.0929
     41 H13        -0.9048    3.4607   -0.4027 H         1 <0>         0.0945
     42 H14        -0.9329   -0.2392   -0.1717 H         1 <0>         0.1498
     43 H15         1.1670   -1.5682   -0.2035 H         1 <0>         0.1521
     44 H16         1.4454    3.2882    0.1908 H         1 <0>         0.1691
@<TRIPOS>BOND
     1    1    2 1
     2    1   29 1
     3    1   30 1
     4    1   31 1
     5    2    6 1
     6    2    3 2
     7    3    4 1
     8    3   32 1
     9    4    5 2
    10    4    8 1
    11    5    6 1
    12    5    7 1
    13    7   33 1
    14    7   34 1
    15    7   35 1
    16    8   16 ar
    17    8    9 ar
    18    9   10 ar
    19    9   36 1
    20   10   11 ar
    21   10   18 1
    22   11   15 ar
    23   11   12 1
    24   12   13 2
    25   12   17 1
    26   13   14 1
    27   14   15 1
    28   15   16 ar
    29   17   37 1
    30   17   38 1
    31   17   39 1
    32   18   19 2
    33   18   20 1
    34   20   21 1
    35   21   22 1
    36   21   40 1
    37   21   41 1
    38   22   27 ar
    39   22   23 ar
    40   23   24 ar
    41   23   42 1
    42   24   25 ar
    43   24   43 1
    44   25   26 ar
    45   25   28 1
    46   26   27 ar
    47   27   44 1
@<TRIPOS>MOLECULE
ZINC40921101
   64    67     0     0     0
SMALL
USER_CHARGES

@<TRIPOS>ATOM
      1 C1          0.0580    1.4813   -0.3012 C.3       1 <0>        -0.1193
      2 C2          0.0713   -0.0253   -0.2710 C.ar      1 <0>        -0.0776
      3 C3          0.1132   -0.7380   -1.4560 C.ar      1 <0>        -0.1175
      4 C4          0.1256   -2.1177   -1.4343 C.ar      1 <0>        -0.1065
      5 C5          0.0958   -2.7932   -0.2154 C.ar      1 <0>        -0.0387
      6 C6          0.0537   -2.0701    0.9751 C.ar      1 <0>        -0.0809
      7 C7          0.0474   -0.6902    0.9415 C.ar      1 <0>        -0.0884
      8 C8          0.0080    0.0932    2.2283 C.3       1 <0>        -0.1176
      9 C9          0.1084   -4.2761   -0.1856 C.ar      1 <0>         0.0567
     10 C10         0.2614   -5.0004   -1.3728 C.ar      1 <0>        -0.0672
     11 C11         0.2674   -6.3813   -1.2940 C.ar      1 <0>        -0.1792
     12 C12         0.1206   -6.9666   -0.0353 C.ar      1 <0>         0.3444
     13 N1         -0.0189   -6.2007    1.0372 N.ar      1 <0>        -0.3023
     14 N2         -0.0197   -4.9191    0.9668 N.ar      1 <0>        -0.1913
     15 N3          0.1201   -8.3505    0.0930 N.pl3     1 <0>        -0.5967
     16 C13        -0.0140   -8.9798    1.4138 C.3       1 <0>         0.1249
     17 C14        -1.1738   -9.9797    1.3681 C.3       1 <0>        -0.1251
     18 C15        -0.9457  -10.9673    0.2215 C.3       1 <0>        -0.1055
     19 C16        -0.9090  -10.2091   -1.1074 C.3       1 <0>        -0.1183
     20 C17         0.2477   -9.2120   -1.0904 C.3       1 <0>         0.1203
     21 C18        -2.0675  -11.9732    0.1948 C.2       1 <0>         0.5219
     22 O1         -3.0386  -11.7801   -0.5056 O.2       1 <0>        -0.5357
     23 N4         -1.9916  -13.0875    0.9492 N.am      1 <0>        -0.6151
     24 C19        -0.8864  -13.2815    1.9001 C.3       1 <0>         0.1096
     25 C20        -1.4778  -13.6444    3.2664 C.3       1 <0>         0.0388
     26 N5         -2.3778  -14.7957    3.1167 N.3       1 <0>        -0.5339
     27 C21        -3.5195  -14.4707    2.2514 C.3       1 <0>         0.0389
     28 C22        -3.0151  -14.1389    0.8479 C.3       1 <0>         0.1153
     29 C23        -2.8315  -15.2830    4.4261 C.3       1 <0>         0.0817
     30 C24        -3.5454  -16.5988    4.2527 C.2       1 <0>        -0.1534
     31 C25        -3.1551  -17.6500    4.9299 C.2       1 <0>        -0.1770
     32 H1          1.0821    1.8542   -0.2830 H         1 <0>         0.0722
     33 H2         -0.4365    1.8221   -1.2108 H         1 <0>         0.0672
     34 H3         -0.4812    1.8575    0.5682 H         1 <0>         0.0701
     35 H4          0.1359   -0.2136   -2.3998 H         1 <0>         0.1260
     36 H5          0.1579   -2.6731   -2.3600 H         1 <0>         0.1243
     37 H6          0.0301   -2.5884    1.9223 H         1 <0>         0.1344
     38 H7         -1.0288    0.2725    2.5129 H         1 <0>         0.0717
     39 H8          0.5078   -0.4733    3.0140 H         1 <0>         0.0682
     40 H9          0.5166    1.0471    2.0886 H         1 <0>         0.0694
     41 H10         0.3711   -4.4967   -2.3218 H         1 <0>         0.1504
     42 H11         0.3819   -6.9884   -2.1798 H         1 <0>         0.1499
     43 H12         0.9091   -9.5022    1.6651 H         1 <0>         0.0693
     44 H13        -0.2196   -8.2157    2.1635 H         1 <0>         0.1038
     45 H14        -1.2232  -10.5229    2.3118 H         1 <0>         0.0799
     46 H15        -2.1094   -9.4444    1.2065 H         1 <0>         0.0764
     47 H16         0.0021  -11.4845    0.3709 H         1 <0>         0.0959
     48 H17        -0.7699  -10.9157   -1.9256 H         1 <0>         0.0829
     49 H18        -1.8471   -9.6717   -1.2457 H         1 <0>         0.0813
     50 H19         0.2147   -8.6010   -1.9924 H         1 <0>         0.0895
     51 H20         1.1926   -9.7537   -1.0478 H         1 <0>         0.0744
     52 H21        -0.2428  -14.0899    1.5533 H         1 <0>         0.0802
     53 H22        -0.3095  -12.3605    1.9838 H         1 <0>         0.0916
     54 H23        -0.6725  -13.8994    3.9552 H         1 <0>         0.0909
     55 H24        -2.0366  -12.7945    3.6582 H         1 <0>         0.0407
     56 H25        -4.1949  -15.3249    2.2041 H         1 <0>         0.0910
     57 H26        -4.0499  -13.6093    2.6574 H         1 <0>         0.0392
     58 H27        -3.8448  -13.7845    0.2363 H         1 <0>         0.0963
     59 H28        -2.5800  -15.0313    0.3981 H         1 <0>         0.0763
     60 H29        -1.9710  -15.4201    5.0809 H         1 <0>         0.0817
     61 H30        -3.5124  -14.5557    4.8684 H         1 <0>         0.0440
     62 H31        -4.3788  -16.6751    3.5700 H         1 <0>         0.1086
     63 H32        -2.3217  -17.5737    5.6126 H         1 <0>         0.0971
     64 H33        -3.6667  -18.5930    4.8056 H         1 <0>         0.0999
@<TRIPOS>BOND
     1    1    2 1
     2    1   32 1
     3    1   33 1
     4    1   34 1
     5    2    7 ar
     6    2    3 ar
     7    3    4 ar
     8    3   35 1
     9    4    5 ar
    10    4   36 1
    11    5    6 ar
    12    5    9 1
    13    6    7 ar
    14    6   37 1
    15    7    8 1
    16    8   38 1
    17    8   39 1
    18    8   40 1
    19    9   14 ar
    20    9   10 ar
    21   10   11 ar
    22   10   41 1
    23   11   12 ar
    24   11   42 1
    25   12   13 ar
    26   12   15 1
    27   13   14 ar
    28   15   20 1
    29   15   16 1
    30   16   17 1
    31   16   43 1
    32   16   44 1
    33   17   18 1
    34   17   45 1
    35   17   46 1
    36   18   19 1
    37   18   21 1
    38   18   47 1
    39   19   20 1
    40   19   48 1
    41   19   49 1
    42   20   50 1
    43   20   51 1
    44   21   22 2
    45   21   23 am
    46   23   28 1
    47   23   24 1
    48   24   25 1
    49   24   52 1
    50   24   53 1
    51   25   26 1
    52   25   54 1
    53   25   55 1
    54   26   27 1
    55   26   29 1
    56   27   28 1
    57   27   56 1
    58   27   57 1
    59   28   58 1
    60   28   59 1
    61   29   30 1
    62   29   60 1
    63   29   61 1
    64   30   31 2
    65   30   62 1
    66   31   63 1
    67   31   64 1
@<TRIPOS>MOLECULE
ZINC35422178
   53    57     0     0     0
SMALL
USER_CHARGES

@<TRIPOS>ATOM
      1 C1         -0.0167    1.3792    0.0096 C.ar      1 <0>        -0.1190
      2 C2          1.1683    2.0931    0.0021 C.ar      1 <0>        -0.1182
      3 C3          2.3774    1.4286   -0.0134 C.ar      1 <0>        -0.1072
      4 C4          2.4032    0.0335   -0.0212 C.ar      1 <0>        -0.0577
      5 C5          1.2045   -0.6806   -0.0131 C.ar      1 <0>        -0.1079
      6 C6          0.0021   -0.0041    0.0020 C.ar      1 <0>        -0.1185
      7 C7          3.6950   -0.6848   -0.0384 C.2       1 <0>        -0.0690
      8 C8          4.4762   -0.5636    1.0075 C.2       1 <0>        -0.1596
      9 C9          5.8226   -1.2236    1.1167 C.3       1 <0>         0.1551
     10 N1          5.9735   -2.1951    0.0239 N.pl3     1 <0>        -0.9954
     11 C10         5.5285   -1.7789   -1.3172 C.3       1 <0>         0.1190
     12 C11         4.0215   -1.5084   -1.2486 C.3       1 <0>        -0.0991
     13 S1          6.6185   -3.6970    0.2898 S.o2      1 <0>         2.7244
     14 O1          7.1343   -4.1440   -0.9565 O.2       1 <0>        -0.9361
     15 O2          7.4255   -3.5921    1.4547 O.2       1 <0>        -0.9396
     16 C12         5.2836   -4.7726    0.6972 C.2       1 <0>        -0.7529
     17 C13         4.5177   -5.5315   -0.1294 C.2       1 <0>        -0.0121
     18 C14         3.5165   -6.3085    0.4055 C.2       1 <0>        -0.1193
     19 C15         3.3271   -6.2865    1.7748 C.2       1 <0>        -0.0753
     20 S2          4.5980   -5.1486    2.3019 S.3       1 <0>         0.2505
     21 C16         2.3399   -7.0144    2.5860 C.2       1 <0>         0.2278
     22 N2          1.4290   -7.8524    2.1409 N.2       1 <0>        -0.2423
     23 N3          0.7427   -8.2986    3.1335 N.2       1 <0>        -0.2733
     24 C17         1.1817   -7.7702    4.2409 C.2       1 <0>         0.1920
     25 O3          2.2027   -6.9521    3.9266 O.3       1 <0>        -0.2163
     26 C18         0.6466   -8.0331    5.6249 C.3       1 <0>        -0.0016
     27 C19         0.7129   -9.5419    5.9394 C.3       1 <0>        -0.1168
     28 C20        -0.5740   -9.8166    6.7563 C.3       1 <0>        -0.1224
     29 C21        -1.6209   -8.9127    6.0591 C.3       1 <0>        -0.1238
     30 C22        -0.8373   -7.6331    5.7011 C.3       1 <0>        -0.1147
     31 H1         -0.9604    1.9041    0.0260 H         1 <0>         0.1222
     32 H2          1.1469    3.1729    0.0082 H         1 <0>         0.1238
     33 H3          3.3018    1.9870   -0.0200 H         1 <0>         0.1236
     34 H4          1.2178   -1.7605   -0.0194 H         1 <0>         0.1197
     35 H5         -0.9265   -0.5556    0.0079 H         1 <0>         0.1225
     36 H6          4.1348    0.0423    1.8338 H         1 <0>         0.1228
     37 H7          6.6054   -0.4686    1.0436 H         1 <0>         0.0937
     38 H8          5.8996   -1.7380    2.0746 H         1 <0>         0.0980
     39 H9          6.0560   -0.8731   -1.6160 H         1 <0>         0.0884
     40 H10         5.7264   -2.5752   -2.0348 H         1 <0>         0.1013
     41 H11         3.4839   -2.4551   -1.1963 H         1 <0>         0.0806
     42 H12         3.7123   -0.9706   -2.1449 H         1 <0>         0.0894
     43 H13         4.6929   -5.5246   -1.1950 H         1 <0>         0.1612
     44 H14         2.8930   -6.9208   -0.2291 H         1 <0>         0.1618
     45 H15         1.2228   -7.4719    6.3606 H         1 <0>         0.1087
     46 H16         0.7114  -10.1240    5.0179 H         1 <0>         0.0815
     47 H17         1.5979   -9.7691    6.5338 H         1 <0>         0.0784
     48 H18        -0.8605  -10.8658    6.6845 H         1 <0>         0.0765
     49 H19        -0.4411   -9.5217    7.7972 H         1 <0>         0.0735
     50 H20        -1.9994   -9.3933    5.1569 H         1 <0>         0.0739
     51 H21        -2.4391   -8.6808    6.7409 H         1 <0>         0.0736
     52 H22        -0.9814   -6.8784    6.4742 H         1 <0>         0.0812
     53 H23        -1.1704   -7.2488    4.7369 H         1 <0>         0.0730
@<TRIPOS>BOND
     1    1    6 ar
     2    1    2 ar
     3    1   31 1
     4    2    3 ar
     5    2   32 1
     6    3    4 ar
     7    3   33 1
     8    4    5 ar
     9    4    7 1
    10    5    6 ar
    11    5   34 1
    12    6   35 1
    13    7   12 1
    14    7    8 2
    15    8    9 1
    16    8   36 1
    17    9   10 1
    18    9   37 1
    19    9   38 1
    20   10   11 1
    21   10   13 1
    22   11   12 1
    23   11   39 1
    24   11   40 1
    25   12   41 1
    26   12   42 1
    27   13   14 2
    28   13   15 2
    29   13   16 1
    30   16   20 1
    31   16   17 2
    32   17   18 1
    33   17   43 1
    34   18   19 2
    35   18   44 1
    36   19   20 1
    37   19   21 1
    38   21   25 1
    39   21   22 2
    40   22   23 1
    41   23   24 2
    42   24   25 1
    43   24   26 1
    44   26   30 1
    45   26   27 1
    46   26   45 1
    47   27   28 1
    48   27   46 1
    49   27   47 1
    50   28   29 1
    51   28   48 1
    52   28   49 1
    53   29   30 1
    54   29   50 1
    55   29   51 1
    56   30   52 1
    57   30   53 1
@<TRIPOS>MOLECULE
ZINC20980223
   64    66     0     0     0
SMALL
USER_CHARGES
4-butoxy-N-[[3-chloro-2-(4-ethylpiperazin-1-yl)phenyl]carbamothioyl]benzamide
@<TRIPOS>ATOM
      1 C1         14.6288   -6.8982    0.7829 C.3       1 <0>        -0.1563
      2 C2         13.4037   -5.9878    0.6769 C.3       1 <0>        -0.1209
      3 C3         12.1327   -6.8394    0.6916 C.3       1 <0>        -0.1237
      4 C4         10.9075   -5.9291    0.5856 C.3       1 <0>         0.0546
      5 O1          9.7204   -6.7245    0.5993 O.3       1 <0>        -0.3057
      6 C5          8.5369   -6.0664    0.5122 C.ar      1 <0>         0.1702
      7 C6          7.3444   -6.7807    0.5201 C.ar      1 <0>        -0.1556
      8 C7          6.1414   -6.1168    0.4316 C.ar      1 <0>        -0.0096
      9 C8          6.1203   -4.7227    0.3341 C.ar      1 <0>        -0.1825
     10 C9          7.3218   -4.0086    0.3212 C.ar      1 <0>        -0.0460
     11 C10         8.5203   -4.6797    0.4159 C.ar      1 <0>        -0.2179
     12 C11         4.8336   -4.0073    0.2391 C.2       1 <0>         0.5409
     13 O2          3.7899   -4.6303    0.2454 O.2       1 <0>        -0.4029
     14 N1          4.8154   -2.6629    0.1452 N.am      1 <0>        -0.6507
     15 C12         3.6399   -2.0093    0.0583 C.2       1 <0>         0.5195
     16 S1          2.1699   -2.8868    0.0673 S.2       1 <0>        -0.4884
     17 N2          3.6217   -0.6650   -0.0356 N.pl3     1 <0>        -0.6281
     18 C13         2.3997    0.0210   -0.0347 C.ar      1 <0>         0.1774
     19 C14         1.3607   -0.4083   -0.8472 C.ar      1 <0>        -0.0552
     20 C15         0.1559    0.2693   -0.8452 C.ar      1 <0>        -0.0879
     21 C16        -0.0182    1.3765   -0.0351 C.ar      1 <0>        -0.0865
     22 C17         1.0124    1.8121    0.7781 C.ar      1 <0>        -0.0648
     23 C18         2.2252    1.1370    0.7824 C.ar      1 <0>         0.0719
     24 N3          3.2701    1.5757    1.6044 N.pl3     1 <0>        -0.4916
     25 C19         2.9060    1.4642    3.0238 C.3       1 <0>         0.0137
     26 C20         4.0998    1.8771    3.8879 C.3       1 <0>        -0.0027
     27 N4          4.4901    3.2539    3.5539 N.4       1 <0>        -0.4027
     28 C21         4.8542    3.3654    2.1346 C.3       1 <0>         0.0051
     29 C22         3.6604    2.9526    1.2704 C.3       1 <0>         0.0011
     30 C23         5.5865    3.7142    4.4164 C.3       1 <0>        -0.0063
     31 C24         5.2762    3.3552    5.8710 C.3       1 <0>        -0.1939
     32 Cl1         0.7892    3.2028    1.7929 Cl        1 <0>        -0.0613
     33 H1         15.5426   -6.2859    0.7723 H         1 <0>         0.0596
     34 H2         14.6436   -7.5937   -0.0692 H         1 <0>         0.0583
     35 H3         14.5810   -7.4694    1.7217 H         1 <0>         0.0578
     36 H4         13.3889   -5.2923    1.5290 H         1 <0>         0.0645
     37 H5         13.4515   -5.4165   -0.2619 H         1 <0>         0.0654
     38 H6         12.1475   -7.5349   -0.1605 H         1 <0>         0.0780
     39 H7         12.0849   -7.4107    1.6304 H         1 <0>         0.0774
     40 H8         10.8927   -5.2336    1.4377 H         1 <0>         0.0660
     41 H9         10.9552   -5.3578   -0.3532 H         1 <0>         0.0671
     42 H10         7.3616   -7.8579    0.5954 H         1 <0>         0.1450
     43 H11         5.2154   -6.6726    0.4377 H         1 <0>         0.1487
     44 H12         7.3099   -2.9316    0.2416 H         1 <0>         0.1215
     45 H13         9.4489   -4.1284    0.4105 H         1 <0>         0.1367
     46 H14         5.7599   -2.0991    0.1395 H         1 <0>         0.4294
     47 H15         4.5660   -0.1062   -0.1129 H         1 <0>         0.4311
     48 H16         1.4929   -1.2725   -1.4812 H         1 <0>         0.1584
     49 H17        -0.6520   -0.0671   -1.4780 H         1 <0>         0.1484
     50 H18        -0.9600    1.9050   -0.0406 H         1 <0>         0.1433
     51 H19         2.0524    2.1247    3.2363 H         1 <0>         0.0807
     52 H20         2.6301    0.4239    3.2510 H         1 <0>         0.1242
     53 H21         3.8200    1.8218    4.9503 H         1 <0>         0.1424
     54 H22         4.9440    1.1987    3.6953 H         1 <0>         0.1335
     55 H23         5.1302    4.4057    1.9075 H         1 <0>         0.1385
     56 H24         5.7078    2.7049    1.9220 H         1 <0>         0.1329
     57 H25         3.9394    3.0071    0.2078 H         1 <0>         0.1245
     58 H26         2.8155    3.6302    1.4628 H         1 <0>         0.0853
     59 H27         6.5235    3.2262    4.1101 H         1 <0>         0.1266
     60 H28         5.6935    4.8050    4.3227 H         1 <0>         0.1320
     61 H29         6.0972    3.6999    6.5169 H         1 <0>         0.1069
     62 H30         5.1692    2.2644    5.9646 H         1 <0>         0.0826
     63 H31         4.3391    3.8432    6.1772 H         1 <0>         0.0814
     64 H32         3.6229    3.9062    3.7344 H         1 <0>         0.4386
@<TRIPOS>BOND
     1    1    2 1
     2    1   33 1
     3    1   34 1
     4    1   35 1
     5    2    3 1
     6    2   36 1
     7    2   37 1
     8    3    4 1
     9    3   38 1
    10    3   39 1
    11    4    5 1
    12    4   40 1
    13    4   41 1
    14    5    6 1
    15    6   11 ar
    16    6    7 ar
    17    7    8 ar
    18    7   42 1
    19    8    9 ar
    20    8   43 1
    21    9   10 ar
    22    9   12 1
    23   10   11 ar
    24   10   44 1
    25   11   45 1
    26   12   13 2
    27   12   14 am
    28   14   15 1
    29   14   46 1
    30   15   16 2
    31   15   17 1
    32   17   18 1
    33   17   47 1
    34   18   23 ar
    35   18   19 ar
    36   19   20 ar
    37   19   48 1
    38   20   21 ar
    39   20   49 1
    40   21   22 ar
    41   21   50 1
    42   22   23 ar
    43   22   32 1
    44   23   24 1
    45   24   29 1
    46   24   25 1
    47   25   26 1
    48   25   51 1
    49   25   52 1
    50   26   27 1
    51   26   53 1
    52   26   54 1
    53   27   28 1
    54   27   30 1
    55   27   64 1
    56   28   29 1
    57   28   55 1
    58   28   56 1
    59   29   57 1
    60   29   58 1
    61   30   31 1
    62   30   59 1
    63   30   60 1
    64   31   61 1
    65   31   62 1
    66   31   63 1
@<TRIPOS>MOLECULE
ZINC35226646
   65    68     0     0     0
SMALL
USER_CHARGES

@<TRIPOS>ATOM
      1 C1          1.4867   -0.2891   -0.2716 C.ar      1 <0>        -0.0880
      2 C2          2.8585   -0.4075   -0.3917 C.ar      1 <0>        -0.0859
      3 C3          3.4536   -1.6543   -0.3223 C.ar      1 <0>        -0.0630
      4 C4          2.6754   -2.7820   -0.1326 C.ar      1 <0>        -0.0858
      5 C5          1.3036   -2.6626   -0.0126 C.ar      1 <0>        -0.0872
      6 C6          0.7094   -1.4164   -0.0820 C.ar      1 <0>        -0.1457
      7 C7         -0.7863   -1.2867    0.0489 C.3       1 <0>         0.0396
      8 N1         -1.4115   -1.4785   -1.2665 N.4       1 <0>        -0.3824
      9 C8         -2.8732   -1.4489   -1.1230 C.3       1 <0>         0.0708
     10 C9         -3.5143   -1.8286   -2.4329 C.2       1 <0>        -0.0585
     11 C10        -3.4961   -3.0594   -2.9903 C.2       1 <0>        -0.1639
     12 C11        -4.2063   -2.9764   -4.1982 C.2       1 <0>        -0.1629
     13 C12        -4.6271   -1.6830   -4.3181 C.2       1 <0>        -0.0061
     14 O1         -4.2010   -1.0031   -3.2334 O.3       1 <0>        -0.1291
     15 C13        -5.4091   -1.1306   -5.4290 C.2       1 <0>         0.5893
     16 O2         -5.2701    0.0348   -5.7506 O.2       1 <0>        -0.5078
     17 N2         -6.2817   -1.9136   -6.0937 N.am      1 <0>        -0.5893
     18 C14        -6.5304   -3.2946   -5.6581 C.3       1 <0>         0.0820
     19 C15        -8.0378   -3.4865   -5.4639 C.3       1 <0>        -0.1166
     20 C16        -8.7681   -3.0918   -6.7496 C.3       1 <0>        -0.1113
     21 C17        -8.5045   -1.6156   -7.0554 C.3       1 <0>        -0.1286
     22 C18        -7.0069   -1.4006   -7.2639 C.3       1 <0>         0.1149
     23 C19       -10.2486   -3.3116   -6.5738 C.2       1 <0>         0.5206
     24 O3        -10.6774   -3.7414   -5.5239 O.2       1 <0>        -0.5392
     25 N3        -11.0961   -3.0304   -7.5833 N.am      1 <0>        -0.8535
     26 C20        -0.9865   -0.4027   -2.1721 C.3       1 <0>         0.0163
     27 C21        -1.7445    0.8814   -1.8297 C.3       1 <0>        -0.1435
     28 C22        -1.3019    2.0019   -2.7729 C.3       1 <0>        -0.1137
     29 C23        -1.6043    1.6011   -4.2182 C.3       1 <0>        -0.1307
     30 C24        -0.8463    0.3169   -4.5606 C.3       1 <0>        -0.1118
     31 C25        -1.2889   -0.8035   -3.6174 C.3       1 <0>        -0.1515
     32 Br1         5.3304   -1.8170   -0.4872 Br        1 <0>        -0.0161
     33 H1          1.0224    0.6848   -0.3214 H         1 <0>         0.1415
     34 H2          3.4657    0.4732   -0.5402 H         1 <0>         0.1468
     35 H3          3.1396   -3.7557   -0.0787 H         1 <0>         0.1469
     36 H4          0.6959   -3.5431    0.1355 H         1 <0>         0.1416
     37 H5         -1.1573   -2.0426    0.7411 H         1 <0>         0.1449
     38 H6         -1.0333   -0.2949    0.4275 H         1 <0>         0.1416
     39 H7         -3.1769   -2.1562   -0.3513 H         1 <0>         0.1627
     40 H8         -3.1903   -0.4449   -0.8408 H         1 <0>         0.1556
     41 H9         -3.0237   -3.9412   -2.5832 H         1 <0>         0.1695
     42 H10        -4.3850   -3.7798   -4.8975 H         1 <0>         0.1780
     43 H11        -6.1686   -3.9880   -6.4174 H         1 <0>         0.0846
     44 H12        -6.0142   -3.4792   -4.7160 H         1 <0>         0.1028
     45 H13        -8.2449   -4.5317   -5.2341 H         1 <0>         0.0921
     46 H14        -8.3818   -2.8579   -4.6426 H         1 <0>         0.0782
     47 H15        -8.4059   -3.7040   -7.5756 H         1 <0>         0.1054
     48 H16        -9.0437   -1.3292   -7.9583 H         1 <0>         0.0900
     49 H17        -8.8440   -1.0046   -6.2190 H         1 <0>         0.0779
     50 H18        -6.8050   -0.3358   -7.3810 H         1 <0>         0.1050
     51 H19        -6.6849   -1.9360   -8.1570 H         1 <0>         0.0834
     52 H20       -10.7532   -2.6866   -8.4230 H         1 <0>         0.4024
     53 H21       -12.0491   -3.1718   -7.4702 H         1 <0>         0.4056
     54 H22         0.0843   -0.2339   -2.0584 H         1 <0>         0.1425
     55 H23        -2.8153    0.7126   -1.9434 H         1 <0>         0.0907
     56 H24        -1.5291    1.1670   -0.8001 H         1 <0>         0.0857
     57 H25        -1.8419    2.9167   -2.5290 H         1 <0>         0.0850
     58 H26        -0.2311    2.1707   -2.6592 H         1 <0>         0.0728
     59 H27        -2.6751    1.4322   -4.3319 H         1 <0>         0.0746
     60 H28        -1.2889    2.3993   -4.8901 H         1 <0>         0.0782
     61 H29        -1.0617    0.0314   -5.5902 H         1 <0>         0.0811
     62 H30         0.2245    0.4858   -4.4469 H         1 <0>         0.0715
     63 H31        -0.7489   -1.7184   -3.8613 H         1 <0>         0.0816
     64 H32        -2.3597   -0.9724   -3.7311 H         1 <0>         0.0956
     65 H33        -1.1288   -2.3694   -1.6466 H         1 <0>         0.4230
@<TRIPOS>BOND
     1    1    6 ar
     2    1    2 ar
     3    1   33 1
     4    2    3 ar
     5    2   34 1
     6    3    4 ar
     7    3   32 1
     8    4    5 ar
     9    4   35 1
    10    5    6 ar
    11    5   36 1
    12    6    7 1
    13    7    8 1
    14    7   37 1
    15    7   38 1
    16    8    9 1
    17    8   26 1
    18    8   65 1
    19    9   10 1
    20    9   39 1
    21    9   40 1
    22   10   14 1
    23   10   11 2
    24   11   12 1
    25   11   41 1
    26   12   13 2
    27   12   42 1
    28   13   14 1
    29   13   15 1
    30   15   16 2
    31   15   17 am
    32   17   22 1
    33   17   18 1
    34   18   19 1
    35   18   43 1
    36   18   44 1
    37   19   20 1
    38   19   45 1
    39   19   46 1
    40   20   21 1
    41   20   23 1
    42   20   47 1
    43   21   22 1
    44   21   48 1
    45   21   49 1
    46   22   50 1
    47   22   51 1
    48   23   24 2
    49   23   25 am
    50   25   52 1
    51   25   53 1
    52   26   31 1
    53   26   27 1
    54   26   54 1
    55   27   28 1
    56   27   55 1
    57   27   56 1
    58   28   29 1
    59   28   57 1
    60   28   58 1
    61   29   30 1
    62   29   59 1
    63   29   60 1
    64   30   31 1
    65   30   61 1
    66   30   62 1
    67   31   63 1
    68   31   64 1
@<TRIPOS>MOLECULE
ZINC12526391
   67    70     0     0     0
SMALL
USER_CHARGES

@<TRIPOS>ATOM
      1 C1         -0.4112    1.2901    1.0406 C.3       1 <0>        -0.1606
      2 C2         -0.2766   -0.2029    0.8860 C.ar      1 <0>         0.0644
      3 C3         -0.3574   -0.7753   -0.3713 C.ar      1 <0>        -0.1453
      4 C4         -0.2346   -2.1411   -0.5198 C.ar      1 <0>        -0.0299
      5 C5         -0.0284   -2.9463    0.6017 C.ar      1 <0>        -0.1742
      6 C6          0.0520   -2.3627    1.8668 C.ar      1 <0>         0.0539
      7 C7         -0.0672   -0.9946    2.0009 C.ar      1 <0>        -0.6831
      8 S1          0.0407   -0.2550    3.5965 S.o2      1 <0>         2.6908
      9 O1          0.1837   -1.3183    4.5282 O.2       1 <0>        -0.9408
     10 O2          0.9879    0.7991    3.4923 O.2       1 <0>        -0.9367
     11 N1         -1.4234    0.4534    3.9079 N.pl3     1 <0>        -1.0438
     12 C8         -2.5866   -0.3248    3.9309 C.ar      1 <0>         0.1203
     13 C9         -2.5450   -1.6236    4.4165 C.ar      1 <0>        -0.1346
     14 C10        -3.6951   -2.3899    4.4386 C.ar      1 <0>        -0.1251
     15 C11        -4.8883   -1.8653    3.9777 C.ar      1 <0>        -0.0907
     16 C12        -4.9373   -0.5714    3.4921 C.ar      1 <0>        -0.1875
     17 C13        -3.7905    0.2049    3.4715 C.ar      1 <0>         0.1135
     18 O3         -3.8383    1.4794    2.9990 O.3       1 <0>        -0.3152
     19 C14        -5.1067    1.9556    2.5446 C.3       1 <0>         0.0261
     20 C15         0.1036   -4.4110    0.4500 C.2       1 <0>         0.5731
     21 O4          0.2831   -5.1096    1.4284 O.2       1 <0>        -0.4996
     22 N2          0.0251   -4.9716   -0.7731 N.am      1 <0>        -0.7514
     23 C16         0.1559   -6.4230   -0.9234 C.3       1 <0>         0.0963
     24 C17         0.1411   -6.7852   -2.4098 C.3       1 <0>         0.1240
     25 H1          1.0031   -6.3349   -2.9021 H         1 <0>         0.1675
     26 C18         0.2013   -8.2832   -2.5625 C.2       1 <0>        -0.1015
     27 C19         1.3029   -9.0014   -2.8457 C.2       1 <0>        -0.1229
     28 C20         0.9061  -10.3575   -2.8955 C.2       1 <0>        -0.2100
     29 C21        -0.4142  -10.3869   -2.6398 C.2       1 <0>         0.0083
     30 O5         -0.8346   -9.1282   -2.4331 O.3       1 <0>        -0.1795
     31 N3         -1.0935   -6.2796   -3.0248 N.4       1 <0>        -0.3833
     32 C22        -2.2522   -6.7814   -2.2764 C.3       1 <0>        -0.0264
     33 C23        -3.5370   -6.1927   -2.8631 C.3       1 <0>        -0.1411
     34 C24        -3.6576   -6.6076   -4.3323 C.3       1 <0>        -0.1387
     35 C25        -2.4089   -6.1437   -5.0877 C.3       1 <0>        -0.1434
     36 C26        -1.1659   -6.7342   -4.4185 C.3       1 <0>        -0.0071
     37 H2          0.5796    1.7439    1.0625 H         1 <0>         0.1094
     38 H3         -0.9769    1.6928    0.2004 H         1 <0>         0.0920
     39 H4         -0.9338    1.5134    1.9707 H         1 <0>         0.0788
     40 H5         -0.5172   -0.1513   -1.2382 H         1 <0>         0.1447
     41 H6         -0.2981   -2.5867   -1.5016 H         1 <0>         0.1266
     42 H7          0.2114   -2.9801    2.7385 H         1 <0>         0.1610
     43 H8         -1.4749    1.4076    4.0743 H         1 <0>         0.4328
     44 H9         -1.6141   -2.0359    4.7769 H         1 <0>         0.1657
     45 H10        -3.6615   -3.4010    4.8166 H         1 <0>         0.1335
     46 H11        -5.7845   -2.4677    3.9965 H         1 <0>         0.1298
     47 H12        -5.8711   -0.1647    3.1328 H         1 <0>         0.1348
     48 H13        -5.0050    2.9830    2.1949 H         1 <0>         0.1044
     49 H14        -5.4593    1.3268    1.7271 H         1 <0>         0.0559
     50 H15        -5.8233    1.9203    3.3652 H         1 <0>         0.0594
     51 H16        -0.1182   -4.4141   -1.5538 H         1 <0>         0.3924
     52 H17         1.0955   -6.7511   -0.4788 H         1 <0>         0.1241
     53 H18        -0.6758   -6.9168   -0.4208 H         1 <0>         0.1025
     54 H19         2.2991   -8.6161   -3.0051 H         1 <0>         0.1634
     55 H20         1.5411  -11.2068   -3.1001 H         1 <0>         0.1652
     56 H21        -1.0309  -11.2728   -2.6029 H         1 <0>         0.2193
     57 H22        -2.2862   -7.8686   -2.3463 H         1 <0>         0.1452
     58 H23        -2.1633   -6.4881   -1.2304 H         1 <0>         0.1318
     59 H24        -4.3962   -6.5679   -2.3072 H         1 <0>         0.1138
     60 H25        -3.5041   -5.1055   -2.7934 H         1 <0>         0.0863
     61 H26        -3.7420   -7.6923   -4.3990 H         1 <0>         0.0827
     62 H27        -4.5417   -6.1445   -4.7704 H         1 <0>         0.0957
     63 H28        -2.4617   -6.4838   -6.1219 H         1 <0>         0.1145
     64 H29        -2.3526   -5.0554   -5.0642 H         1 <0>         0.0878
     65 H30        -0.2750   -6.4060   -4.9540 H         1 <0>         0.1317
     66 H31        -1.2230   -7.8224   -4.4428 H         1 <0>         0.1312
     67 H32        -1.0913   -5.2709   -3.0007 H         1 <0>         0.4176
@<TRIPOS>BOND
     1    1    2 1
     2    1   37 1
     3    1   38 1
     4    1   39 1
     5    2    7 ar
     6    2    3 ar
     7    3    4 ar
     8    3   40 1
     9    4    5 ar
    10    4   41 1
    11    5    6 ar
    12    5   20 1
    13    6    7 ar
    14    6   42 1
    15    7    8 1
    16    8    9 2
    17    8   10 2
    18    8   11 1
    19   11   12 1
    20   11   43 1
    21   12   17 ar
    22   12   13 ar
    23   13   14 ar
    24   13   44 1
    25   14   15 ar
    26   14   45 1
    27   15   16 ar
    28   15   46 1
    29   16   17 ar
    30   16   47 1
    31   17   18 1
    32   18   19 1
    33   19   48 1
    34   19   49 1
    35   19   50 1
    36   20   21 2
    37   20   22 am
    38   22   23 1
    39   22   51 1
    40   23   24 1
    41   23   52 1
    42   23   53 1
    43   24   25 1
    44   24   26 1
    45   24   31 1
    46   26   30 1
    47   26   27 2
    48   27   28 1
    49   27   54 1
    50   28   29 2
    51   28   55 1
    52   29   30 1
    53   29   56 1
    54   31   36 1
    55   31   32 1
    56   31   67 1
    57   32   33 1
    58   32   57 1
    59   32   58 1
    60   33   34 1
    61   33   59 1
    62   33   60 1
    63   34   35 1
    64   34   61 1
    65   34   62 1
    66   35   36 1
    67   35   63 1
    68   35   64 1
    69   36   65 1
    70   36   66 1
@<TRIPOS>MOLECULE
ZINC40741796
   56    58     0     0     0
SMALL
USER_CHARGES

@<TRIPOS>ATOM
      1 C1         -0.0349    1.5474   -0.0139 C.3       1 <0>        -0.1579
      2 C2         -0.0121    0.0176   -0.0122 C.3       1 <0>         0.0508
      3 O1          0.6613   -0.4500   -1.1827 O.3       1 <0>        -0.2910
      4 C3          0.7696   -1.7969   -1.3361 C.ar      1 <0>         0.1356
      5 C4          0.2342   -2.6495   -0.3837 C.ar      1 <0>        -0.1662
      6 C5          0.3453   -4.0184   -0.5406 C.ar      1 <0>        -0.1236
      7 C6          0.9900   -4.5407   -1.6465 C.ar      1 <0>        -0.0915
      8 C7          1.5267   -3.6955   -2.6008 C.ar      1 <0>        -0.0783
      9 C8          1.4131   -2.3218   -2.4523 C.ar      1 <0>         0.1228
     10 O2          1.9352   -1.4890   -3.3925 O.3       1 <0>        -0.2857
     11 C9          3.2907   -1.0746   -3.2112 C.3       1 <0>         0.0499
     12 C10         3.6926   -0.1626   -4.3415 C.2       1 <0>         0.5167
     13 O3          2.8966    0.1061   -5.2163 O.2       1 <0>        -0.4886
     14 N1          4.9366    0.3545   -4.3804 N.am      1 <0>        -0.6682
     15 C11         5.3412    1.1222   -5.4780 C.ar      1 <0>         0.1298
     16 C12         6.6524    1.0530   -5.9302 C.ar      1 <0>        -0.1359
     17 C13         7.0486    1.8121   -7.0139 C.ar      1 <0>        -0.1025
     18 C14         6.1412    2.6404   -7.6485 C.ar      1 <0>        -0.0925
     19 C15         4.8350    2.7120   -7.2004 C.ar      1 <0>        -0.1030
     20 C16         4.4309    1.9508   -6.1211 C.ar      1 <0>        -0.1138
     21 C17         6.5770    3.4673   -8.8306 C.3       1 <0>        -0.1173
     22 Br1         2.4089   -4.4138   -4.1114 Br        1 <0>         0.0072
     23 C18        -0.2372   -4.9437    0.4966 C.3       1 <0>         0.0470
     24 N2         -1.6269   -5.2626    0.1430 N.4       1 <0>        -0.5126
     25 C19        -2.1947   -6.1645    1.1540 C.3       1 <0>         0.0942
     26 C20        -3.6203   -6.4917    0.7913 C.2       1 <0>        -0.1214
     27 C21        -4.0209   -7.5268    0.0314 C.2       1 <0>        -0.1332
     28 C22        -5.4305   -7.4535   -0.0504 C.2       1 <0>        -0.2209
     29 C23        -5.8069   -6.3780    0.6645 C.2       1 <0>         0.0195
     30 O4         -4.7068   -5.8027    1.1768 O.3       1 <0>        -0.1689
     31 H1          0.9872    1.9261   -0.0206 H         1 <0>         0.0713
     32 H2         -0.5597    1.9020   -0.9010 H         1 <0>         0.0727
     33 H3         -0.5486    1.9040    0.8789 H         1 <0>         0.0866
     34 H4          0.5126   -0.3370    0.8749 H         1 <0>         0.0679
     35 H5         -1.0342   -0.3611   -0.0055 H         1 <0>         0.0660
     36 H6         -0.2696   -2.2443    0.4813 H         1 <0>         0.1493
     37 H7          1.0751   -5.6108   -1.7652 H         1 <0>         0.1506
     38 H8          3.3845   -0.5428   -2.2643 H         1 <0>         0.0939
     39 H9          3.9401   -1.9500   -3.2021 H         1 <0>         0.0923
     40 H10         5.5515    0.1945   -3.6474 H         1 <0>         0.4117
     41 H11         7.3616    0.4065   -5.4348 H         1 <0>         0.1263
     42 H12         8.0683    1.7589   -7.3658 H         1 <0>         0.1286
     43 H13         4.1288    3.3602   -7.6979 H         1 <0>         0.1274
     44 H14         3.4093    2.0032   -5.7748 H         1 <0>         0.1381
     45 H15         6.4234    2.8989   -9.7479 H         1 <0>         0.0723
     46 H16         5.9894    4.3845   -8.8688 H         1 <0>         0.0680
     47 H17         7.6334    3.7165   -8.7301 H         1 <0>         0.0681
     48 H18         0.3483   -5.8623    0.5338 H         1 <0>         0.1479
     49 H19        -0.2128   -4.4575    1.4719 H         1 <0>         0.1453
     50 H20        -2.1688   -4.4122    0.1086 H         1 <0>         0.4305
     51 H21        -1.6092   -7.0832    1.1913 H         1 <0>         0.1594
     52 H22        -2.1703   -5.6784    2.1293 H         1 <0>         0.1479
     53 H23        -3.3874   -8.2707   -0.4286 H         1 <0>         0.1624
     54 H24        -6.0803   -8.1308   -0.5846 H         1 <0>         0.1644
     55 H25        -6.8220   -6.0373    0.8059 H         1 <0>         0.2193
     56 H26        -1.6494   -5.7126   -0.7598 H         1 <0>         0.4309
@<TRIPOS>BOND
     1    1    2 1
     2    1   31 1
     3    1   32 1
     4    1   33 1
     5    2    3 1
     6    2   34 1
     7    2   35 1
     8    3    4 1
     9    4    9 ar
    10    4    5 ar
    11    5    6 ar
    12    5   36 1
    13    6    7 ar
    14    6   23 1
    15    7    8 ar
    16    7   37 1
    17    8    9 ar
    18    8   22 1
    19    9   10 1
    20   10   11 1
    21   11   12 1
    22   11   38 1
    23   11   39 1
    24   12   13 2
    25   12   14 am
    26   14   15 1
    27   14   40 1
    28   15   20 ar
    29   15   16 ar
    30   16   17 ar
    31   16   41 1
    32   17   18 ar
    33   17   42 1
    34   18   19 ar
    35   18   21 1
    36   19   20 ar
    37   19   43 1
    38   20   44 1
    39   21   45 1
    40   21   46 1
    41   21   47 1
    42   23   24 1
    43   23   48 1
    44   23   49 1
    45   24   25 1
    46   24   50 1
    47   24   56 1
    48   25   26 1
    49   25   51 1
    50   25   52 1
    51   26   30 1
    52   26   27 2
    53   27   28 1
    54   27   53 1
    55   28   29 2
    56   28   54 1
    57   29   30 1
    58   29   55 1
@<TRIPOS>MOLECULE
ZINC38915387
   49    52     0     0     0
SMALL
USER_CHARGES

@<TRIPOS>ATOM
      1 C1         -0.0167    1.3780    0.0096 C.ar      1 <0>        -0.1108
      2 C2          1.1709    2.0861    0.0021 C.ar      1 <0>        -0.0932
      3 C3          2.3773    1.4123   -0.0135 C.ar      1 <0>        -0.1096
      4 C4          2.3967    0.0287   -0.0210 C.ar      1 <0>        -0.0172
      5 C5          1.2083   -0.6792   -0.0130 C.ar      1 <0>        -0.0791
      6 C6          0.0021   -0.0041    0.0020 C.ar      1 <0>        -0.0850
      7 C7          1.2286   -2.1860   -0.0218 C.3       1 <0>        -0.0759
      8 S1          1.2540   -2.8003    1.6849 S.3       1 <0>         0.0558
      9 C8          1.2758   -4.5531    1.5067 C.2       1 <0>         0.0681
     10 N1          1.2799   -5.2452    0.4091 N.2       1 <0>        -0.2476
     11 N2          1.2981   -6.6218    0.3837 N.pl3     1 <0>        -0.6048
     12 C9          1.3129   -7.2772    1.7111 C.3       1 <0>         0.1716
     13 H1          0.4222   -7.8870    1.8624 H         1 <0>         0.1591
     14 S2          1.3055   -5.7896    2.7946 S.3       1 <0>        -0.1209
     15 S3          2.8232   -8.2535    1.9484 S.3       1 <0>        -0.1093
     16 C10         4.1604   -7.0370    1.7980 C.3       1 <0>        -0.1367
     17 C11         5.4887   -7.7258    1.9773 C.2       1 <0>         0.5535
     18 O1          5.5293   -8.9195    2.1859 O.2       1 <0>        -0.4513
     19 N3          6.6315   -7.0149    1.9057 N.am      1 <0>        -0.5538
     20 N4          7.8664   -7.6553    2.0724 N.2       1 <0>        -0.1256
     21 C12         8.9766   -6.9647    2.0029 C.2       1 <0>         0.0351
     22 C13        10.2125   -7.6056    2.1697 C.2       1 <0>         0.1299
     23 C14        11.4761   -7.0211    2.1312 C.ar      1 <0>        -0.1466
     24 C15        11.9070   -5.6915    1.9270 C.ar      1 <0>        -0.0248
     25 C16        13.2328   -5.4042    1.9412 C.ar      1 <0>        -0.1403
     26 C17        14.1953   -6.3955    2.1540 C.ar      1 <0>         0.0413
     27 C18        13.8554   -7.6909    2.3567 C.ar      1 <0>        -0.1997
     28 C19        12.4864   -8.0699    2.3560 C.ar      1 <0>         0.3143
     29 N5         11.9062   -9.2392    2.5257 N.pl3     1 <0>        -0.5886
     30 C20        10.4521   -9.0755    2.4357 C.3       1 <0>         0.0704
     31 Cl1         3.9119   -0.8184   -0.0411 Cl        1 <0>        -0.0652
     32 H2         -0.9592    1.9049    0.0259 H         1 <0>         0.1368
     33 H3          1.1556    3.1659    0.0080 H         1 <0>         0.1382
     34 H4          3.3048    1.9655   -0.0201 H         1 <0>         0.1386
     35 H5         -0.9258   -0.5566    0.0079 H         1 <0>         0.1384
     36 H6          0.3384   -2.5584   -0.5287 H         1 <0>         0.1097
     37 H7          2.1181   -2.5344   -0.5466 H         1 <0>         0.1088
     38 H8          1.3006   -7.1262   -0.4448 H         1 <0>         0.4436
     39 H9          4.1213   -6.5741    0.8119 H         1 <0>         0.1232
     40 H10         4.0422   -6.2706    2.5640 H         1 <0>         0.1353
     41 H11         6.5990   -6.0599    1.7388 H         1 <0>         0.4080
     42 H12         8.9404   -5.9014    1.8170 H         1 <0>         0.1604
     43 H13        11.1839   -4.9068    1.7600 H         1 <0>         0.1564
     44 H14        13.5526   -4.3847    1.7837 H         1 <0>         0.1564
     45 H15        15.2398   -6.1207    2.1566 H         1 <0>         0.1610
     46 H16        14.6228   -8.4332    2.5187 H         1 <0>         0.1610
     47 H17         9.9804   -9.3689    3.3735 H         1 <0>         0.1787
     48 H18        10.0594   -9.6744    1.6140 H         1 <0>         0.1776
     49 H19        12.3679  -10.0766    2.6885 H         1 <0>         0.4551
@<TRIPOS>BOND
     1    1    6 ar
     2    1    2 ar
     3    1   32 1
     4    2    3 ar
     5    2   33 1
     6    3    4 ar
     7    3   34 1
     8    4    5 ar
     9    4   31 1
    10    5    6 ar
    11    5    7 1
    12    6   35 1
    13    7    8 1
    14    7   36 1
    15    7   37 1
    16    8    9 1
    17    9   14 1
    18    9   10 2
    19   10   11 1
    20   11   12 1
    21   11   38 1
    22   12   13 1
    23   12   14 1
    24   12   15 1
    25   15   16 1
    26   16   17 1
    27   16   39 1
    28   16   40 1
    29   17   18 2
    30   17   19 am
    31   19   20 1
    32   19   41 1
    33   20   21 2
    34   21   22 1
    35   21   42 1
    36   22   30 1
    37   22   23 2
    38   23   28 ar
    39   23   24 ar
    40   24   25 ar
    41   24   43 1
    42   25   26 ar
    43   25   44 1
    44   26   27 ar
    45   26   45 1
    46   27   28 ar
    47   27   46 1
    48   28   29 2
    49   29   30 1
    50   29   49 1
    51   30   47 1
    52   30   48 1
@<TRIPOS>MOLECULE
ZINC16780296
   69    71     0     0     0
SMALL
USER_CHARGES
3-(cyclopentylsulfamoyl)-N-[[4-(diethylaminomethyl)phenyl]methyl]-4-methoxy-benzamide
@<TRIPOS>ATOM
      1 C1          7.2157   -6.6266    7.3667 C.3       1 <0>        -0.1867
      2 C2          7.4913   -5.4910    8.3544 C.3       1 <0>        -0.0153
      3 C3          9.7799   -5.3198    7.5826 C.3       1 <0>        -0.0127
      4 C4         10.4304   -5.6291    8.9325 C.3       1 <0>        -0.1885
      5 C5          8.0528   -3.9661    6.5594 C.3       1 <0>         0.0420
      6 C6          6.9034   -3.0414    6.8677 C.ar      1 <0>        -0.1529
      7 C7          7.1465   -1.7168    7.1792 C.ar      1 <0>        -0.0939
      8 C8          6.0921   -0.8684    7.4612 C.ar      1 <0>        -0.0946
      9 C9          4.7947   -1.3445    7.4311 C.ar      1 <0>        -0.0715
     10 C10         4.5520   -2.6705    7.1247 C.ar      1 <0>        -0.0953
     11 C11         5.6061   -3.5178    6.8385 C.ar      1 <0>        -0.0962
     12 C12         3.6453   -0.4196    7.7384 C.3       1 <0>         0.1520
     13 N1          3.1821    0.2118    6.5003 N.am      1 <0>        -0.7294
     14 C13         2.1553    1.0841    6.5319 C.2       1 <0>         0.5671
     15 O1          1.6134    1.3471    7.5881 O.2       1 <0>        -0.5215
     16 C14         1.6886    1.7203    5.2845 C.ar      1 <0>        -0.1983
     17 C15         2.3098    1.4190    4.0694 C.ar      1 <0>         0.0053
     18 C16         1.8681    2.0105    2.9072 C.ar      1 <0>        -0.2315
     19 C17         0.8122    2.9141    2.9428 C.ar      1 <0>         0.2537
     20 C18         0.1915    3.2160    4.1490 C.ar      1 <0>        -0.7137
     21 C19         0.6243    2.6249    5.3152 C.ar      1 <0>         0.0796
     22 S1         -1.1507    4.3570    4.1864 S.o2      1 <0>         2.6981
     23 O2         -2.0513    3.9584    3.1620 O.2       1 <0>        -0.9402
     24 O3         -1.5468    4.4737    5.5461 O.2       1 <0>        -0.9554
     25 N2         -0.5500    5.8343    3.7400 N.pl3     1 <0>        -1.1059
     26 C20        -0.0295    6.0344    2.3853 C.3       1 <0>         0.1428
     27 C21         1.5071    5.8972    2.3839 C.3       1 <0>        -0.1489
     28 C22         1.9828    6.9641    1.3669 C.3       1 <0>        -0.1231
     29 C23         1.0129    8.1429    1.6293 C.3       1 <0>        -0.1257
     30 C24        -0.3437    7.4623    1.9055 C.3       1 <0>        -0.1304
     31 O4          0.3828    3.4986    1.7958 O.3       1 <0>        -0.3000
     32 C25         1.0654    3.1434    0.5916 C.3       1 <0>         0.0156
     33 H1          6.4037   -7.2478    7.7447 H         1 <0>         0.1063
     34 H2          6.9334   -6.2076    6.4009 H         1 <0>         0.0786
     35 H3          8.1137   -7.2334    7.2510 H         1 <0>         0.0821
     36 H4          7.8425   -5.9077    9.2984 H         1 <0>         0.1294
     37 H5          6.5742   -4.9272    8.5249 H         1 <0>         0.1281
     38 H6          9.5791   -6.2517    7.0541 H         1 <0>         0.1331
     39 H7         10.4531   -4.7025    6.9878 H         1 <0>         0.1287
     40 H8          9.7586   -6.2493    9.5259 H         1 <0>         0.0794
     41 H9         11.3680   -6.1608    8.7707 H         1 <0>         0.1064
     42 H10        10.6279   -4.6973    9.4626 H         1 <0>         0.0800
     43 H11         7.7230   -4.7352    5.8609 H         1 <0>         0.1387
     44 H12         8.8682   -3.3962    6.1139 H         1 <0>         0.1356
     45 H13         8.1600   -1.3446    7.2020 H         1 <0>         0.1344
     46 H14         6.2820    0.1666    7.7045 H         1 <0>         0.1388
     47 H15         3.5387   -3.0436    7.1055 H         1 <0>         0.1388
     48 H16         5.4162   -4.5527    6.5948 H         1 <0>         0.1339
     49 H17         3.9746    0.3493    8.4373 H         1 <0>         0.0865
     50 H18         2.8294   -0.9894    8.1830 H         1 <0>         0.0865
     51 H19         3.6144    0.0019    5.6577 H         1 <0>         0.3997
     52 H20         3.1328    0.7202    4.0416 H         1 <0>         0.1333
     53 H21         2.3452    1.7753    1.9673 H         1 <0>         0.1470
     54 H22         0.1414    2.8601    6.2522 H         1 <0>         0.1648
     55 H23        -0.5428    6.5671    4.3755 H         1 <0>         0.4196
     56 H24        -0.4707    5.3062    1.7047 H         1 <0>         0.1118
     57 H25         1.9098    6.1081    3.3746 H         1 <0>         0.0725
     58 H26         1.8007    4.9000    2.0561 H         1 <0>         0.0693
     59 H27         1.8784    6.5980    0.3456 H         1 <0>         0.0692
     60 H28         3.0125    7.2588    1.5694 H         1 <0>         0.0678
     61 H29         0.9459    8.7846    0.7507 H         1 <0>         0.0699
     62 H30         1.3358    8.7165    2.4981 H         1 <0>         0.0675
     63 H31        -0.9367    7.4270    0.9915 H         1 <0>         0.0769
     64 H32        -0.8842    8.0060    2.6802 H         1 <0>         0.0757
     65 H33         0.9741    2.0700    0.4253 H         1 <0>         0.0680
     66 H34         2.1189    3.4091    0.6792 H         1 <0>         0.0674
     67 H35         0.6239    3.6800   -0.2481 H         1 <0>         0.1160
     68 N3          8.5235   -4.5781    7.8197 N.4       1 <0>        -0.3942
     69 H36         8.6994   -3.8350    8.5060 H         1 <0>         0.4277
@<TRIPOS>BOND
     1    1    2 1
     2    1   33 1
     3    1   34 1
     4    1   35 1
     5    2   36 1
     6    2   37 1
     7    2   68 1
     8    3    4 1
     9    3   38 1
    10    3   39 1
    11    3   68 1
    12    4   40 1
    13    4   41 1
    14    4   42 1
    15    5    6 1
    16    5   43 1
    17    5   44 1
    18    5   68 1
    19    6   11 ar
    20    6    7 ar
    21    7    8 ar
    22    7   45 1
    23    8    9 ar
    24    8   46 1
    25    9   10 ar
    26    9   12 1
    27   10   11 ar
    28   10   47 1
    29   11   48 1
    30   12   13 1
    31   12   49 1
    32   12   50 1
    33   13   14 am
    34   13   51 1
    35   14   15 2
    36   14   16 1
    37   16   21 ar
    38   16   17 ar
    39   17   18 ar
    40   17   52 1
    41   18   19 ar
    42   18   53 1
    43   19   20 ar
    44   19   31 1
    45   20   21 ar
    46   20   22 1
    47   21   54 1
    48   22   23 2
    49   22   24 2
    50   22   25 1
    51   25   26 1
    52   25   55 1
    53   26   30 1
    54   26   27 1
    55   26   56 1
    56   27   28 1
    57   27   57 1
    58   27   58 1
    59   28   29 1
    60   28   59 1
    61   28   60 1
    62   29   30 1
    63   29   61 1
    64   29   62 1
    65   30   63 1
    66   30   64 1
    67   31   32 1
    68   32   65 1
    69   32   66 1
    70   32   67 1
    71   68   69 1
@<TRIPOS>MOLECULE
ZINC35747517
   64    67     0     0     0
SMALL
USER_CHARGES

@<TRIPOS>ATOM
      1 C1         -2.9560    1.2051   -2.8357 C.3       1 <0>         0.0258
      2 O1         -2.5682   -0.1273   -2.4947 O.3       1 <0>        -0.3170
      3 C2         -3.5659   -1.0277   -2.2928 C.ar      1 <0>         0.1256
      4 C3         -4.8915   -0.6365   -2.4264 C.ar      1 <0>        -0.1940
      5 C4         -5.9097   -1.5488   -2.2225 C.ar      1 <0>        -0.0803
      6 C5         -5.6146   -2.8543   -1.8843 C.ar      1 <0>        -0.0990
      7 C6         -4.2863   -3.2555   -1.7481 C.ar      1 <0>        -0.0177
      8 C7         -3.2602   -2.3366   -1.9595 C.ar      1 <0>        -0.1337
      9 C8         -3.9664   -4.6567   -1.3851 C.2       1 <0>        -0.0213
     10 C9         -3.0592   -5.3651   -2.1000 C.2       1 <0>        -0.1552
     11 S1         -3.0356   -6.9489   -1.2825 S.3       1 <0>         0.2006
     12 C10        -4.2321   -6.6264   -0.0128 C.2       1 <0>         0.0668
     13 C11        -4.6176   -5.2967   -0.2484 C.2       1 <0>        -0.2015
     14 C12        -5.5935   -4.7650    0.6538 C.2       1 <0>         0.5530
     15 O2         -5.9948   -3.6208    0.5272 O.2       1 <0>        -0.4750
     16 N1         -6.0617   -5.5476    1.6436 N.am      1 <0>        -0.6230
     17 H1         -6.7234   -5.1927    2.2577 H         1 <0>         0.4266
     18 C13        -5.6265   -6.8242    1.7991 C.2       1 <0>         0.3618
     19 N2         -4.7444   -7.3406    0.9860 N.2       1 <0>        -0.4881
     20 C14        -6.1788   -7.6633    2.9225 C.3       1 <0>         0.0424
     21 N3         -5.5620   -8.9961    2.8871 N.4       1 <0>        -0.3596
     22 C15        -4.1238   -8.8774    3.1616 C.3       1 <0>         0.0084
     23 C16        -3.9194   -8.1463    4.4634 C.ar      1 <0>        -0.1468
     24 C17        -3.7820   -6.7708    4.4694 C.ar      1 <0>        -0.1050
     25 C18        -3.5945   -6.1001    5.6635 C.ar      1 <0>        -0.1075
     26 C19        -3.5449   -6.8048    6.8516 C.ar      1 <0>        -0.0856
     27 C20        -3.6832   -8.1802    6.8457 C.ar      1 <0>        -0.1075
     28 C21        -3.8750   -8.8505    5.6520 C.ar      1 <0>        -0.1017
     29 C22        -6.1859   -9.8515    3.9054 C.3       1 <0>        -0.0594
     30 C23        -5.8239  -11.3132    3.6350 C.3       1 <0>         0.0884
     31 H2         -6.0676  -11.5629    2.6023 H         1 <0>         0.1263
     32 C24        -6.6174  -12.2183    4.5794 C.3       1 <0>        -0.1450
     33 C25        -6.3504  -13.6829    4.2264 C.3       1 <0>        -0.0895
     34 C26        -7.1320  -14.5744    5.1567 C.2       1 <0>        -0.1730
     35 C27        -7.9489  -15.4747    4.6686 C.2       1 <0>        -0.1767
     36 O3         -4.4250  -11.5059    3.8541 O.3       1 <0>        -0.5457
     37 H3         -2.0658    1.8198   -2.9688 H         1 <0>         0.1039
     38 H4         -3.5295    1.1906   -3.7626 H         1 <0>         0.0579
     39 H5         -3.5686    1.6212   -2.0359 H         1 <0>         0.0568
     40 H6         -5.1276    0.3838   -2.6901 H         1 <0>         0.1311
     41 H7         -6.9390   -1.2393   -2.3276 H         1 <0>         0.1276
     42 H8         -6.4125   -3.5645   -1.7250 H         1 <0>         0.1171
     43 H9         -2.2295   -2.6432   -1.8592 H         1 <0>         0.1317
     44 H10        -2.4878   -5.0466   -2.9593 H         1 <0>         0.2089
     45 H11        -5.9564   -7.1852    3.8764 H         1 <0>         0.1647
     46 H12        -7.2584   -7.7594    2.8072 H         1 <0>         0.1657
     47 H13        -3.6838   -9.8723    3.2307 H         1 <0>         0.1688
     48 H14        -3.6444   -8.3234    2.3545 H         1 <0>         0.1525
     49 H15        -3.8208   -6.2202    3.5411 H         1 <0>         0.1203
     50 H16        -3.4865   -5.0255    5.6681 H         1 <0>         0.1352
     51 H17        -3.3977   -6.2809    7.7845 H         1 <0>         0.1371
     52 H18        -3.6441   -8.7309    7.7740 H         1 <0>         0.1379
     53 H19        -3.9867   -9.9247    5.6478 H         1 <0>         0.1268
     54 H20        -5.8240   -9.5642    4.8926 H         1 <0>         0.1411
     55 H21        -7.2686   -9.7322    3.8664 H         1 <0>         0.1438
     56 H22        -6.3086  -12.0303    5.6077 H         1 <0>         0.0811
     57 H23        -7.6818  -12.0078    4.4754 H         1 <0>         0.0872
     58 H24        -6.6591  -13.8710    3.1981 H         1 <0>         0.0715
     59 H25        -5.2860  -13.8935    4.3304 H         1 <0>         0.0825
     60 H26        -7.0187  -14.4711    6.2257 H         1 <0>         0.1103
     61 H27        -8.0622  -15.5781    3.5995 H         1 <0>         0.0980
     62 H28        -8.5090  -16.1136    5.3352 H         1 <0>         0.1018
     63 H29        -4.1564  -11.4210    4.7792 H         1 <0>         0.3862
     64 H30        -5.6977   -9.4054    1.9749 H         1 <0>         0.4358
@<TRIPOS>BOND
     1    1    2 1
     2    1   37 1
     3    1   38 1
     4    1   39 1
     5    2    3 1
     6    3    8 ar
     7    3    4 ar
     8    4    5 ar
     9    4   40 1
    10    5    6 ar
    11    5   41 1
    12    6    7 ar
    13    6   42 1
    14    7    8 ar
    15    7    9 1
    16    8   43 1
    17    9   13 1
    18    9   10 2
    19   10   11 1
    20   10   44 1
    21   11   12 1
    22   12   19 1
    23   12   13 2
    24   13   14 1
    25   14   15 2
    26   14   16 am
    27   16   17 1
    28   16   18 1
    29   18   19 2
    30   18   20 1
    31   20   21 1
    32   20   45 1
    33   20   46 1
    34   21   22 1
    35   21   29 1
    36   21   64 1
    37   22   23 1
    38   22   47 1
    39   22   48 1
    40   23   28 ar
    41   23   24 ar
    42   24   25 ar
    43   24   49 1
    44   25   26 ar
    45   25   50 1
    46   26   27 ar
    47   26   51 1
    48   27   28 ar
    49   27   52 1
    50   28   53 1
    51   29   30 1
    52   29   54 1
    53   29   55 1
    54   30   31 1
    55   30   32 1
    56   30   36 1
    57   32   33 1
    58   32   56 1
    59   32   57 1
    60   33   34 1
    61   33   58 1
    62   33   59 1
    63   34   35 2
    64   34   60 1
    65   35   61 1
    66   35   62 1
    67   36   63 1
@<TRIPOS>MOLECULE
ZINC39653616
   66    69     0     0     0
SMALL
USER_CHARGES

@<TRIPOS>ATOM
      1 C1          5.4363    1.0284    3.9508 C.3       1 <0>        -0.1546
      2 C2          5.1039   -0.4614    4.0540 C.3       1 <0>         0.0537
      3 O1          6.0822   -1.2184    3.3386 O.3       1 <0>        -0.3148
      4 C3          5.9325   -2.5692    3.3307 C.ar      1 <0>         0.1383
      5 C4          4.8626   -3.1535    3.9929 C.ar      1 <0>        -0.2059
      6 C5          4.7124   -4.5267    3.9830 C.ar      1 <0>        -0.0692
      7 C6          5.6274   -5.3187    3.3141 C.ar      1 <0>        -0.1339
      8 C7          6.6948   -4.7387    2.6538 C.ar      1 <0>        -0.0727
      9 C8          6.8460   -3.3656    2.6555 C.ar      1 <0>        -0.1517
     10 C9          5.4613   -6.8165    3.3053 C.3       1 <0>        -0.0800
     11 C10         4.6103   -7.2282    2.1023 C.3       1 <0>         0.1203
     12 N1          4.4489   -8.6842    2.0938 N.am      1 <0>        -0.7323
     13 C11         3.7316   -9.2770    1.1188 C.2       1 <0>         0.5114
     14 O2          3.2197   -8.6050    0.2486 O.2       1 <0>        -0.5077
     15 C12         3.5655  -10.7748    1.1100 C.3       1 <0>        -0.1147
     16 H1          3.5159  -11.1564    2.1298 H         1 <0>         0.1196
     17 C13         2.2947  -11.1706    0.3251 C.3       1 <0>         0.1203
     18 N2          2.7774  -11.4663   -1.0444 N.am      1 <0>        -0.6142
     19 C14         4.0640  -12.1732   -0.8372 C.3       1 <0>         0.0894
     20 C15         4.7240  -11.4375    0.3460 C.3       1 <0>        -0.0736
     21 C16         5.6931  -10.3771   -0.1679 C.3       1 <0>        -0.1490
     22 C17         6.8654  -11.0635   -0.8747 C.3       1 <0>        -0.0096
     23 N3          7.5460  -11.9634    0.0643 N.4       1 <0>        -0.5049
     24 C18         6.6336  -13.0345    0.4824 C.3       1 <0>        -0.0105
     25 C19         5.4513  -12.4314    1.2463 C.3       1 <0>        -0.1348
     26 C20         2.1814  -11.1615   -2.2141 C.2       1 <0>         0.5853
     27 O3          1.1853  -10.4648   -2.2253 O.2       1 <0>        -0.4982
     28 C21         2.7387  -11.6744   -3.4831 C.ar      1 <0>        -0.1161
     29 C22         3.5789  -12.7897   -3.4795 C.ar      1 <0>        -0.0952
     30 C23         4.0963  -13.2641   -4.6663 C.ar      1 <0>        -0.1069
     31 C24         3.7848  -12.6365   -5.8611 C.ar      1 <0>        -0.0093
     32 C25         2.9515  -11.5291   -5.8717 C.ar      1 <0>        -0.0357
     33 C26         2.4227  -11.0491   -4.6905 C.ar      1 <0>        -0.0377
     34 Cl1         2.5663  -10.7487   -7.3739 Cl        1 <0>        -0.0239
     35 Cl2         4.4410  -13.2391   -7.3511 Cl        1 <0>        -0.0275
     36 H2          5.4339    1.3295    2.9032 H         1 <0>         0.0679
     37 H3          4.6900    1.6059    4.4965 H         1 <0>         0.0818
     38 H4          6.4217    1.2114    4.3792 H         1 <0>         0.0679
     39 H5          5.1062   -0.7625    5.1016 H         1 <0>         0.0638
     40 H6          4.1184   -0.6444    3.6256 H         1 <0>         0.0637
     41 H7          4.1480   -2.5354    4.5161 H         1 <0>         0.1307
     42 H8          3.8797   -4.9821    4.4983 H         1 <0>         0.1252
     43 H9          7.4084   -5.3595    2.1323 H         1 <0>         0.1257
     44 H10         7.6775   -2.9127    2.1358 H         1 <0>         0.1326
     45 H11         6.4406   -7.2902    3.2368 H         1 <0>         0.0746
     46 H12         4.9682   -7.1327    4.2245 H         1 <0>         0.0790
     47 H13         3.6311   -6.7544    2.1708 H         1 <0>         0.0740
     48 H14         5.1035   -6.9119    1.1831 H         1 <0>         0.0716
     49 H15         4.8583   -9.2217    2.7898 H         1 <0>         0.3982
     50 H16         1.8362  -12.0557    0.7659 H         1 <0>         0.0907
     51 H17         1.5857  -10.3429    0.3077 H         1 <0>         0.1051
     52 H18         3.8873  -13.2183   -0.5831 H         1 <0>         0.0922
     53 H19         4.6875  -12.0975   -1.7280 H         1 <0>         0.0928
     54 H20         5.1773   -9.7226   -0.8706 H         1 <0>         0.1221
     55 H21         6.0673   -9.7893    0.6703 H         1 <0>         0.0996
     56 H22         6.4921  -11.6381   -1.7225 H         1 <0>         0.1319
     57 H23         7.5680  -10.3091   -1.2287 H         1 <0>         0.1398
     58 H24         8.3537  -12.3679   -0.3852 H         1 <0>         0.4347
     59 H25         6.2660  -13.5625   -0.3975 H         1 <0>         0.1321
     60 H26         7.1653  -13.7327    1.1288 H         1 <0>         0.1414
     61 H27         5.8167  -11.9173    2.1353 H         1 <0>         0.0993
     62 H28         4.7651  -13.2255    1.5407 H         1 <0>         0.1235
     63 H29         3.8233  -13.2797   -2.5487 H         1 <0>         0.1467
     64 H30         4.7461  -14.1267   -4.6642 H         1 <0>         0.1508
     65 H31         1.7699  -10.1888   -4.6998 H         1 <0>         0.1581
     66 H32         7.8422  -11.4403    0.8746 H         1 <0>         0.4289
@<TRIPOS>BOND
     1    1    2 1
     2    1   36 1
     3    1   37 1
     4    1   38 1
     5    2    3 1
     6    2   39 1
     7    2   40 1
     8    3    4 1
     9    4    9 ar
    10    4    5 ar
    11    5    6 ar
    12    5   41 1
    13    6    7 ar
    14    6   42 1
    15    7    8 ar
    16    7   10 1
    17    8    9 ar
    18    8   43 1
    19    9   44 1
    20   10   11 1
    21   10   45 1
    22   10   46 1
    23   11   12 1
    24   11   47 1
    25   11   48 1
    26   12   13 am
    27   12   49 1
    28   13   14 2
    29   13   15 1
    30   15   16 1
    31   15   20 1
    32   15   17 1
    33   17   18 1
    34   17   50 1
    35   17   51 1
    36   18   19 1
    37   18   26 am
    38   19   20 1
    39   19   52 1
    40   19   53 1
    41   20   25 1
    42   20   21 1
    43   21   22 1
    44   21   54 1
    45   21   55 1
    46   22   23 1
    47   22   56 1
    48   22   57 1
    49   23   24 1
    50   23   58 1
    51   23   66 1
    52   24   25 1
    53   24   59 1
    54   24   60 1
    55   25   61 1
    56   25   62 1
    57   26   27 2
    58   26   28 1
    59   28   33 ar
    60   28   29 ar
    61   29   30 ar
    62   29   63 1
    63   30   31 ar
    64   30   64 1
    65   31   32 ar
    66   31   35 1
    67   32   33 ar
    68   32   34 1
    69   33   65 1
@<TRIPOS>MOLECULE
ZINC14159749
   62    65     0     0     0
SMALL
USER_CHARGES

@<TRIPOS>ATOM
      1 C1         -6.9886   -3.3993   -8.9709 C.3       1 <0>        -0.1210
      2 C2         -6.2343   -3.7418   -7.7121 C.ar      1 <0>        -0.0562
      3 C3         -5.9310   -5.0606   -7.4267 C.ar      1 <0>        -0.1040
      4 C4         -5.2402   -5.3785   -6.2738 C.ar      1 <0>        -0.0608
      5 C5         -4.8493   -4.3723   -5.4003 C.ar      1 <0>         0.1312
      6 C6         -5.1549   -3.0479   -5.6896 C.ar      1 <0>        -0.0292
      7 C7         -5.8420   -2.7363   -6.8479 C.ar      1 <0>        -0.1025
      8 Cl1        -4.6687   -1.7859   -4.6013 Cl        1 <0>        -0.0586
      9 N1         -4.1497   -4.6912   -4.2311 N.pl3     1 <0>        -0.6244
     10 C8         -3.0639   -5.4874   -4.2915 C.2       1 <0>         0.5347
     11 S1         -2.3909   -5.9035   -5.8097 S.2       1 <0>        -0.4946
     12 N2         -2.5078   -5.9559   -3.1567 N.pl3     1 <0>        -0.6880
     13 C9         -1.3892   -6.7525   -3.2175 C.2       1 <0>         0.6861
     14 N3         -0.2222   -6.2258   -3.5191 N.2       1 <0>        -0.4984
     15 C10        -0.0718   -4.8730   -3.5434 C.ar      1 <0>         0.5043
     16 N4          0.1387   -4.2212   -2.4029 N.ar      1 <0>        -0.5421
     17 C11         0.2890   -2.9081   -2.3943 C.ar      1 <0>         0.1885
     18 C12         0.2251   -2.2106   -3.5912 C.ar      1 <0>        -0.2465
     19 C13         0.0045   -2.9189   -4.7629 C.ar      1 <0>         0.1945
     20 N5         -0.1330   -4.2323   -4.7077 N.ar      1 <0>        -0.4903
     21 C14        -0.0723   -2.1997   -6.0850 C.3       1 <0>        -0.1071
     22 C15         0.5266   -2.1769   -1.0981 C.3       1 <0>        -0.1069
     23 N6         -1.4897   -8.0937   -2.9641 N.pl3     1 <0>        -0.5884
     24 C16        -2.8013   -8.7149   -2.7324 C.3       1 <0>         0.1039
     25 C17        -2.9780   -9.8713   -3.7243 C.3       1 <0>         0.0961
     26 N7         -1.7763  -10.7161   -3.6795 N.pl3     1 <0>        -0.5865
     27 C18        -0.4647  -10.0949   -3.9112 C.3       1 <0>         0.0830
     28 C19        -0.2886   -8.9396   -2.9249 C.3       1 <0>         0.1177
     29 C20        -1.8784  -12.0783   -3.4222 C.ar      1 <0>         0.4456
     30 C21        -3.1342  -12.6696   -3.3259 C.ar      1 <0>        -0.2014
     31 C22        -3.2211  -14.0258   -3.0695 C.ar      1 <0>         0.0390
     32 C23        -2.0448  -14.7483   -2.9174 C.ar      1 <0>        -0.1716
     33 C24        -0.8326  -14.0972   -3.0256 C.ar      1 <0>         0.1490
     34 N8         -0.7797  -12.8026   -3.2763 N.ar      1 <0>        -0.5071
     35 H1         -6.2818   -3.2267   -9.7825 H         1 <0>         0.0801
     36 H2         -7.6498   -4.2249   -9.2343 H         1 <0>         0.0739
     37 H3         -7.5800   -2.4985   -8.8064 H         1 <0>         0.0731
     38 H4         -6.2351   -5.8430   -8.1062 H         1 <0>         0.1370
     39 H5         -5.0045   -6.4088   -6.0516 H         1 <0>         0.1340
     40 H6         -6.0762   -1.7070   -7.0759 H         1 <0>         0.1419
     41 H7         -4.4462   -4.3393   -3.3772 H         1 <0>         0.4073
     42 H8          0.3444   -1.1374   -3.6104 H         1 <0>         0.1452
     43 H9          0.9231   -2.1412   -6.5252 H         1 <0>         0.0861
     44 H10        -0.7354   -2.7446   -6.7570 H         1 <0>         0.0856
     45 H11        -0.4604   -1.1931   -5.9290 H         1 <0>         0.0790
     46 H12         1.5949   -2.0032   -0.9695 H         1 <0>         0.0876
     47 H13         0.0030   -1.2211   -1.1189 H         1 <0>         0.0823
     48 H14         0.1536   -2.7775   -0.2685 H         1 <0>         0.0792
     49 H15        -2.8502   -9.0970   -1.7127 H         1 <0>         0.0903
     50 H16        -3.5882   -7.9767   -2.8872 H         1 <0>         0.1020
     51 H17        -3.8509  -10.4618   -3.4461 H         1 <0>         0.1140
     52 H18        -3.1081   -9.4733   -4.7307 H         1 <0>         0.1069
     53 H19         0.3222  -10.8331   -3.7564 H         1 <0>         0.0907
     54 H20        -0.4159   -9.7129   -4.9309 H         1 <0>         0.1143
     55 H21         0.5836   -8.3497   -3.2067 H         1 <0>         0.1323
     56 H22        -0.1544   -9.3380   -1.9192 H         1 <0>         0.0825
     57 H23        -4.0289  -12.0774   -3.4493 H         1 <0>         0.1778
     58 H24        -4.1821  -14.5120   -2.9890 H         1 <0>         0.1742
     59 H25        -2.0782  -15.8089   -2.7161 H         1 <0>         0.1806
     60 H26         0.0845  -14.6552   -2.9077 H         1 <0>         0.2066
     61 H27         0.0853  -12.3702   -3.3514 H         1 <0>         0.4384
     62 H28        -2.8969   -5.7309   -2.2972 H         1 <0>         0.4091
@<TRIPOS>BOND
     1    1    2 1
     2    1   35 1
     3    1   36 1
     4    1   37 1
     5    2    7 ar
     6    2    3 ar
     7    3    4 ar
     8    3   38 1
     9    4    5 ar
    10    4   39 1
    11    5    6 ar
    12    5    9 1
    13    6    7 ar
    14    6    8 1
    15    7   40 1
    16    9   10 1
    17    9   41 1
    18   10   11 2
    19   10   12 1
    20   12   13 1
    21   12   62 1
    22   13   14 2
    23   13   23 1
    24   14   15 1
    25   15   20 ar
    26   15   16 ar
    27   16   17 ar
    28   17   18 ar
    29   17   22 1
    30   18   19 ar
    31   18   42 1
    32   19   20 ar
    33   19   21 1
    34   21   43 1
    35   21   44 1
    36   21   45 1
    37   22   46 1
    38   22   47 1
    39   22   48 1
    40   23   28 1
    41   23   24 1
    42   24   25 1
    43   24   49 1
    44   24   50 1
    45   25   26 1
    46   25   51 1
    47   25   52 1
    48   26   27 1
    49   26   29 1
    50   27   28 1
    51   27   53 1
    52   27   54 1
    53   28   55 1
    54   28   56 1
    55   29   34 ar
    56   29   30 ar
    57   30   31 ar
    58   30   57 1
    59   31   32 ar
    60   31   58 1
    61   32   33 ar
    62   32   59 1
    63   33   34 ar
    64   33   60 1
    65   34   61 1
@<TRIPOS>MOLECULE
ZINC63513797
   64    69     0     0     0
SMALL
USER_CHARGES

@<TRIPOS>ATOM
      1 C1         -0.0167    1.3781    0.0096 C.ar      1 <0>        -0.1144
      2 C2          1.1709    2.0855    0.0021 C.ar      1 <0>        -0.1190
      3 C3          2.3773    1.4107   -0.0130 C.ar      1 <0>        -0.1021
      4 C4          2.3960    0.0285   -0.0201 C.ar      1 <0>        -0.1116
      5 C5          1.2084   -0.6789   -0.0117 C.ar      1 <0>        -0.1046
      6 C6          0.0021   -0.0041    0.0020 C.ar      1 <0>        -0.1210
      7 C7          3.7112   -0.7071   -0.0376 C.3       1 <0>         0.1746
      8 N1          4.1518   -0.9524    1.3379 N.pl3     1 <0>        -0.6023
      9 C8          4.9483   -0.0926    2.1059 C.ar      1 <0>         0.2035
     10 C9          5.3685    1.2060    1.8439 C.ar      1 <0>        -0.1721
     11 C10         6.1464    1.8876    2.7589 C.ar      1 <0>        -0.0683
     12 C11         6.5179    1.2856    3.9483 C.ar      1 <0>        -0.1672
     13 C12         6.1189   -0.0055    4.2248 C.ar      1 <0>        -0.0546
     14 C13         5.3382   -0.7100    3.3066 C.ar      1 <0>        -0.1177
     15 C14         4.8064   -2.0723    3.3044 C.2       1 <0>        -0.1447
     16 C15         5.0506   -3.1447    4.0647 C.2       1 <0>         0.1299
     17 N2          4.3745   -4.3004    3.6261 N.pl3     1 <0>        -0.5619
     18 N3          4.3434   -4.5122    2.2276 N.am      1 <0>        -0.4047
     19 C16         4.0995   -3.4346    1.4234 C.2       1 <0>         0.5334
     20 O1          4.0968   -3.5215    0.2137 O.2       1 <0>        -0.5119
     21 C17         3.8294   -2.1272    2.1356 C.3       1 <0>         0.1796
     22 H1          2.8010   -2.0735    2.4927 H         1 <0>         0.1122
     23 C18         4.5660   -5.8442    1.6597 C.3       1 <0>         0.1079
     24 C19         6.0367   -6.0377    1.3941 C.2       1 <0>         0.4977
     25 O2          6.8217   -5.1503    1.6536 O.2       1 <0>        -0.5084
     26 N4          6.4798   -7.1968    0.8682 N.am      1 <0>        -0.7362
     27 C20         7.9095   -7.3849    0.6100 C.3       1 <0>         0.1277
     28 C21         8.1420   -8.7760    0.0169 C.3       1 <0>        -0.1046
     29 C22         9.6127   -8.9695   -0.2487 C.2       1 <0>         0.0703
     30 C23        10.5141   -9.5667    0.5639 C.ar      1 <0>        -0.1671
     31 C24        10.3997  -10.1900    1.8878 C.ar      1 <0>        -0.0130
     32 C25        11.5051  -10.7153    2.4633 C.ar      1 <0>        -0.1499
     33 C26        12.7544  -10.6790    1.8288 C.ar      1 <0>         0.0545
     34 C27        12.9386  -10.1237    0.6123 C.ar      1 <0>        -0.2094
     35 C28        11.8444   -9.5417   -0.0852 C.ar      1 <0>         0.3278
     36 N5         11.7683   -8.9519   -1.2535 N.pl3     1 <0>        -0.5842
     37 C29        10.3783   -8.5410   -1.4806 C.3       1 <0>         0.0599
     38 H2         -0.9591    1.9053    0.0259 H         1 <0>         0.1231
     39 H3          1.1563    3.1654    0.0076 H         1 <0>         0.1235
     40 H4          3.3051    1.9634   -0.0196 H         1 <0>         0.1196
     41 H5          1.2231   -1.7588   -0.0176 H         1 <0>         0.1169
     42 H6         -0.9258   -0.5567    0.0082 H         1 <0>         0.1222
     43 H7          3.5884   -1.6586   -0.5549 H         1 <0>         0.1069
     44 H8          4.4573   -0.1052   -0.5563 H         1 <0>         0.0822
     45 H9          5.0852    1.6851    0.9184 H         1 <0>         0.1180
     46 H10         6.4671    2.8964    2.5448 H         1 <0>         0.1256
     47 H11         7.1215    1.8276    4.6613 H         1 <0>         0.1245
     48 H12         6.4115   -0.4726    5.1535 H         1 <0>         0.1214
     49 H13         5.7001   -3.1269    4.9273 H         1 <0>         0.1666
     50 H14         3.9546   -4.9157    4.2474 H         1 <0>         0.4304
     51 H15         4.2212   -6.6016    2.3637 H         1 <0>         0.1178
     52 H16         4.0126   -5.9380    0.7253 H         1 <0>         0.1276
     53 H17         5.8520   -7.9065    0.6606 H         1 <0>         0.4065
     54 H18         8.2543   -6.6276   -0.0940 H         1 <0>         0.0770
     55 H19         8.4629   -7.2912    1.5444 H         1 <0>         0.0781
     56 H20         7.7972   -9.5334    0.7209 H         1 <0>         0.1164
     57 H21         7.5886   -8.8697   -0.9175 H         1 <0>         0.1196
     58 H22         9.4470  -10.2283    2.3950 H         1 <0>         0.1602
     59 H23        11.4232  -11.1744    3.4375 H         1 <0>         0.1583
     60 H24        13.6046  -11.1128    2.3341 H         1 <0>         0.1615
     61 H25        13.9223  -10.1210    0.1665 H         1 <0>         0.1610
     62 H26         9.9770   -9.0377   -2.3639 H         1 <0>         0.1758
     63 H27        10.3233   -7.4589   -1.5996 H         1 <0>         0.1745
     64 H28        12.5069   -8.8138   -1.8671 H         1 <0>         0.4564
@<TRIPOS>BOND
     1    1    6 ar
     2    1    2 ar
     3    1   38 1
     4    2    3 ar
     5    2   39 1
     6    3    4 ar
     7    3   40 1
     8    4    5 ar
     9    4    7 1
    10    5    6 ar
    11    5   41 1
    12    6   42 1
    13    7    8 1
    14    7   43 1
    15    7   44 1
    16    8   21 1
    17    8    9 1
    18    9   14 ar
    19    9   10 ar
    20   10   11 ar
    21   10   45 1
    22   11   12 ar
    23   11   46 1
    24   12   13 ar
    25   12   47 1
    26   13   14 ar
    27   13   48 1
    28   14   15 1
    29   15   21 1
    30   15   16 2
    31   16   17 1
    32   16   49 1
    33   17   18 1
    34   17   50 1
    35   18   19 am
    36   18   23 1
    37   19   20 2
    38   19   21 1
    39   21   22 1
    40   23   24 1
    41   23   51 1
    42   23   52 1
    43   24   25 2
    44   24   26 am
    45   26   27 1
    46   26   53 1
    47   27   28 1
    48   27   54 1
    49   27   55 1
    50   28   29 1
    51   28   56 1
    52   28   57 1
    53   29   37 1
    54   29   30 2
    55   30   35 ar
    56   30   31 ar
    57   31   32 ar
    58   31   58 1
    59   32   33 ar
    60   32   59 1
    61   33   34 ar
    62   33   60 1
    63   34   35 ar
    64   34   61 1
    65   35   36 2
    66   36   37 1
    67   36   64 1
    68   37   62 1
    69   37   63 1
@<TRIPOS>MOLECULE
ZINC06141968
   52    54     0     0     0
SMALL
USER_CHARGES
1-[(3-acetylphenyl)carbamoyl]ethyl 4-[(5-chloro-2-thienyl)sulfonylamino]benzoate
@<TRIPOS>ATOM
      1 C1          5.2813   -6.1546    4.3297 C.3       1 <0>        -0.1681
      2 C2          4.2795   -5.1489    4.9004 C.3       1 <0>         0.0748
      3 H1          4.6586   -4.7532    5.8427 H         1 <0>         0.1180
      4 C3          2.9591   -5.8351    5.1387 C.2       1 <0>         0.5159
      5 O1          1.9805   -5.5048    4.5028 O.2       1 <0>        -0.4865
      6 N1          2.8656   -6.8159    6.0583 N.am      1 <0>        -0.6697
      7 C4          1.6193   -7.3776    6.3581 C.ar      1 <0>         0.1343
      8 C5          1.5270   -8.7226    6.6982 C.ar      1 <0>        -0.1116
      9 C6          0.2989   -9.2838    6.9955 C.ar      1 <0>        -0.1106
     10 C7         -0.8448   -8.5134    6.9570 C.ar      1 <0>        -0.0867
     11 C8         -0.7640   -7.1595    6.6162 C.ar      1 <0>        -0.1517
     12 C9          0.4789   -6.5921    6.3214 C.ar      1 <0>        -0.0646
     13 C10        -1.9819   -6.3340    6.5743 C.2       1 <0>         0.3918
     14 O2         -1.9089   -5.1604    6.2785 O.2       1 <0>        -0.4490
     15 C11        -3.3195   -6.9475    6.8991 C.3       1 <0>        -0.1912
     16 O3          4.0959   -4.0602    3.9573 O.3       1 <0>        -0.3226
     17 C12         4.9185   -2.9998    4.0794 C.2       1 <0>         0.5143
     18 O4          5.7660   -2.9853    4.9501 O.2       1 <0>        -0.5017
     19 C13         4.7903   -1.8576    3.1568 C.ar      1 <0>        -0.1375
     20 C14         5.6432   -0.7563    3.2821 C.ar      1 <0>        -0.0313
     21 C15         5.5215    0.3044    2.4218 C.ar      1 <0>        -0.1405
     22 C16         4.5504    0.2858    1.4241 C.ar      1 <0>         0.1807
     23 C17         3.6960   -0.8066    1.3002 C.ar      1 <0>        -0.1672
     24 C18         3.8157   -1.8729    2.1538 C.ar      1 <0>        -0.0314
     25 N2          4.4301    1.3626    0.5534 N.pl3     1 <0>        -1.0526
     26 S1          4.2809    1.0984   -1.0746 S.o2      1 <0>         2.7255
     27 O5          4.2814    2.3767   -1.6952 O.2       1 <0>        -0.9348
     28 O6          3.2163    0.1718   -1.2398 O.2       1 <0>        -0.9288
     29 C19         5.7480    0.2800   -1.6062 C.2       1 <0>        -0.7706
     30 C20         6.0400   -1.0431   -1.5908 C.2       1 <0>         0.0116
     31 C21         7.2694   -1.4642   -2.0634 C.2       1 <0>        -0.1757
     32 C22         8.1463   -0.5395   -2.5284 C.2       1 <0>        -0.0827
     33 S2          7.2350    0.9791   -2.3040 S.3       1 <0>         0.2320
     34 Cl1         9.7407   -0.7726   -3.1745 Cl        1 <0>         0.0391
     35 H2          5.4191   -6.9718    5.0377 H         1 <0>         0.0832
     36 H3          4.9022   -6.5502    3.3874 H         1 <0>         0.0776
     37 H4          6.2363   -5.6582    4.1574 H         1 <0>         0.0811
     38 H5          3.6622   -7.1324    6.5125 H         1 <0>         0.4147
     39 H6          2.4184   -9.3314    6.7307 H         1 <0>         0.1330
     40 H7          0.2348  -10.3291    7.2592 H         1 <0>         0.1366
     41 H8         -1.8021   -8.9556    7.1902 H         1 <0>         0.1371
     42 H9          0.5494   -5.5460    6.0620 H         1 <0>         0.1456
     43 H10        -3.4963   -6.8616    7.8796 H         1 <0>         0.0888
     44 H11        -4.1011   -6.4306    6.3423 H         1 <0>         0.0901
     45 H12        -3.3126   -8.0017    6.6222 H         1 <0>         0.0875
     46 H13         6.3971   -0.7416    4.0553 H         1 <0>         0.1457
     47 H14         6.1798    1.1551    2.5180 H         1 <0>         0.1426
     48 H15         2.9407   -0.8158    0.5283 H         1 <0>         0.1671
     49 H16         3.1558   -2.7220    2.0542 H         1 <0>         0.1508
     50 H17         4.4335    2.2688    0.8993 H         1 <0>         0.4342
     51 H18         5.3231   -1.7582   -1.2154 H         1 <0>         0.1574
     52 H19         7.5256   -2.5134   -2.0665 H         1 <0>         0.1560
@<TRIPOS>BOND
     1    1    2 1
     2    1   35 1
     3    1   36 1
     4    1   37 1
     5    2    3 1
     6    2    4 1
     7    2   16 1
     8    4    5 2
     9    4    6 am
    10    6    7 1
    11    6   38 1
    12    7   12 ar
    13    7    8 ar
    14    8    9 ar
    15    8   39 1
    16    9   10 ar
    17    9   40 1
    18   10   11 ar
    19   10   41 1
    20   11   12 ar
    21   11   13 1
    22   12   42 1
    23   13   14 2
    24   13   15 1
    25   15   43 1
    26   15   44 1
    27   15   45 1
    28   16   17 1
    29   17   18 2
    30   17   19 1
    31   19   24 ar
    32   19   20 ar
    33   20   21 ar
    34   20   46 1
    35   21   22 ar
    36   21   47 1
    37   22   23 ar
    38   22   25 1
    39   23   24 ar
    40   23   48 1
    41   24   49 1
    42   25   26 1
    43   25   50 1
    44   26   27 2
    45   26   28 2
    46   26   29 1
    47   29   33 1
    48   29   30 2
    49   30   31 1
    50   30   51 1
    51   31   32 2
    52   31   52 1
    53   32   33 1
    54   32   34 1
@<TRIPOS>MOLECULE
ZINC00917385
   60    63     0     0     0
SMALL
USER_CHARGES
N-(3-acetylphenyl)-2-[[5-[[(2-chlorophenyl)amino]methyl]-4-(4-methoxyphenyl)-1,2,4-triazol-3-yl]sulfanyl]acetamide
@<TRIPOS>ATOM
      1 C1        -13.3863   -7.6165   -4.1543 C.3       1 <0>        -0.1914
      2 C2        -12.0422   -7.2498   -3.5797 C.2       1 <0>         0.3920
      3 O1        -11.0288   -7.5191   -4.1885 O.2       1 <0>        -0.4491
      4 C3        -11.9597   -6.5649   -2.2796 C.ar      1 <0>        -0.1545
      5 C4        -13.1271   -6.2534   -1.5745 C.ar      1 <0>        -0.0854
      6 C5        -13.0456   -5.6120   -0.3564 C.ar      1 <0>        -0.1121
      7 C6        -11.8128   -5.2794    0.1749 C.ar      1 <0>        -0.1097
      8 C7        -10.6466   -5.5793   -0.5193 C.ar      1 <0>         0.1294
      9 C8        -10.7149   -6.2236   -1.7441 C.ar      1 <0>        -0.0634
     10 N1         -9.4024   -5.2356    0.0218 N.am      1 <0>        -0.6657
     11 C9         -8.3969   -4.8532   -0.7901 C.2       1 <0>         0.5342
     12 O2         -8.5430   -4.8869   -1.9936 O.2       1 <0>        -0.4983
     13 C10        -7.0910   -4.3837   -0.2024 C.3       1 <0>        -0.1542
     14 S1         -5.9519   -3.9436   -1.5384 S.3       1 <0>         0.1036
     15 C11        -4.5505   -3.4450   -0.5937 C.2       1 <0>         0.1525
     16 N2         -4.4560   -3.4320    0.7158 N.2       1 <0>        -0.2892
     17 N3         -3.2916   -3.0161    1.0664 N.2       1 <0>        -0.2532
     18 C12        -2.5804   -2.7321    0.0119 C.2       1 <0>         0.1703
     19 N4         -3.3551   -2.9982   -1.0855 N.pl3     1 <0>        -0.3999
     20 C13        -2.9968   -2.8449   -2.4342 C.ar      1 <0>         0.0500
     21 C14        -2.7412   -1.5799   -2.9450 C.ar      1 <0>        -0.0469
     22 C15        -2.3846   -1.4299   -4.2706 C.ar      1 <0>        -0.1952
     23 C16        -2.2912   -2.5424   -5.0941 C.ar      1 <0>         0.1547
     24 C17        -2.5517   -3.8064   -4.5852 C.ar      1 <0>        -0.1363
     25 C18        -2.9037   -3.9577   -3.2586 C.ar      1 <0>        -0.0534
     26 O3         -1.9446   -2.3938   -6.4003 O.3       1 <0>        -0.3087
     27 C19        -1.6905   -1.0638   -6.8568 C.3       1 <0>         0.0225
     28 C20        -1.1656   -2.2133    0.0019 C.3       1 <0>         0.2184
     29 N5         -1.1824   -0.7485    0.0198 N.pl3     1 <0>        -0.7396
     30 C21         0.0196   -0.0357    0.0146 C.ar      1 <0>         0.2293
     31 C22         1.2311   -0.7143   -0.0080 C.ar      1 <0>        -0.1864
     32 C23         2.4174   -0.0070   -0.0136 C.ar      1 <0>        -0.0638
     33 C24         2.4004    1.3757    0.0033 C.ar      1 <0>        -0.1642
     34 C25         1.1964    2.0554    0.0258 C.ar      1 <0>        -0.0615
     35 C26         0.0055    1.3540    0.0315 C.ar      1 <0>        -0.1105
     36 Cl1        -1.5059    2.2077    0.0525 Cl        1 <0>        -0.0741
     37 H1        -13.7244   -6.8632   -4.7184 H         1 <0>         0.0886
     38 H2        -13.2874   -8.5129   -4.7665 H         1 <0>         0.0898
     39 H3        -14.0887   -7.8065   -3.3427 H         1 <0>         0.0874
     40 H4        -14.0916   -6.5153   -1.9837 H         1 <0>         0.1369
     41 H5        -13.9478   -5.3724    0.1869 H         1 <0>         0.1365
     42 H6        -11.7562   -4.7812    1.1314 H         1 <0>         0.1332
     43 H7         -9.8096   -6.4607   -2.2831 H         1 <0>         0.1517
     44 H8         -9.2639   -5.2725    0.9812 H         1 <0>         0.4176
     45 H9         -6.6552   -5.1818    0.3985 H         1 <0>         0.1334
     46 H10        -7.2683   -3.5110    0.4261 H         1 <0>         0.1330
     47 H11        -2.8175   -0.7134   -2.3049 H         1 <0>         0.1310
     48 H12        -2.1824   -0.4459   -4.6673 H         1 <0>         0.1421
     49 H13        -2.4789   -4.6723   -5.2266 H         1 <0>         0.1474
     50 H14        -3.1069   -4.9417   -2.8626 H         1 <0>         0.1410
     51 H15        -2.5846   -0.4556   -6.7200 H         1 <0>         0.0602
     52 H16        -0.8679   -0.6343   -6.2849 H         1 <0>         0.0601
     53 H17        -1.4250   -1.0870   -7.9137 H         1 <0>         0.1065
     54 H18        -0.6578   -2.5598   -0.8982 H         1 <0>         0.0851
     55 H19        -0.6374   -2.5813    0.8815 H         1 <0>         0.1027
     56 H20        -2.0280   -0.2733    0.0352 H         1 <0>         0.4045
     57 H21         1.2456   -1.7941   -0.0216 H         1 <0>         0.1301
     58 H22         3.3597   -0.5345   -0.0315 H         1 <0>         0.1292
     59 H23         3.3296    1.9260   -0.0014 H         1 <0>         0.1292
     60 H24         1.1866    3.1352    0.0390 H         1 <0>         0.1326
@<TRIPOS>BOND
     1    1    2 1
     2    1   37 1
     3    1   38 1
     4    1   39 1
     5    2    3 2
     6    2    4 1
     7    4    9 ar
     8    4    5 ar
     9    5    6 ar
    10    5   40 1
    11    6    7 ar
    12    6   41 1
    13    7    8 ar
    14    7   42 1
    15    8    9 ar
    16    8   10 1
    17    9   43 1
    18   10   11 am
    19   10   44 1
    20   11   12 2
    21   11   13 1
    22   13   14 1
    23   13   45 1
    24   13   46 1
    25   14   15 1
    26   15   19 1
    27   15   16 2
    28   16   17 1
    29   17   18 2
    30   18   19 1
    31   18   28 1
    32   19   20 1
    33   20   25 ar
    34   20   21 ar
    35   21   22 ar
    36   21   47 1
    37   22   23 ar
    38   22   48 1
    39   23   24 ar
    40   23   26 1
    41   24   25 ar
    42   24   49 1
    43   25   50 1
    44   26   27 1
    45   27   51 1
    46   27   52 1
    47   27   53 1
    48   28   29 1
    49   28   54 1
    50   28   55 1
    51   29   30 1
    52   29   56 1
    53   30   35 ar
    54   30   31 ar
    55   31   32 ar
    56   31   57 1
    57   32   33 ar
    58   32   58 1
    59   33   34 ar
    60   33   59 1
    61   34   35 ar
    62   34   60 1
    63   35   36 1
@<TRIPOS>MOLECULE
ZINC24903678
   59    62     0     0     0
SMALL
USER_CHARGES
ethyl 2-[[4-[[8-(3-thienyl)-2-(trifluoromethyl)-1,6-naphthyridin-5-yl]amino]piperidine-1-carbonyl]amino]acetate
@<TRIPOS>ATOM
      1 C1         -2.3727   13.3999   12.0633 C.3       1 <0>        -0.1569
      2 C2         -2.8213   12.3598   11.0348 C.3       1 <0>         0.0610
      3 O1         -2.5036   11.0293   11.5218 O.3       1 <0>        -0.3514
      4 C3         -2.8348    9.9960   10.7316 C.2       1 <0>         0.4632
      5 O2         -3.3722   10.1966    9.6682 O.2       1 <0>        -0.5077
      6 C4         -2.5362    8.5857   11.1708 C.3       1 <0>         0.1464
      7 N1         -2.9909    7.6472   10.1418 N.am      1 <0>        -0.7549
      8 C5         -2.8267    6.3213   10.3191 C.2       1 <0>         0.7167
      9 O3         -2.3863    5.8985   11.3706 O.2       1 <0>        -0.5879
     10 N2         -3.1506    5.4640    9.3309 N.am      1 <0>        -0.6276
     11 C6         -2.8754    4.0271    9.4662 C.3       1 <0>         0.1327
     12 C7         -2.0659    3.5636    8.2510 C.3       1 <0>        -0.1436
     13 C8         -2.8134    3.9425    6.9705 C.3       1 <0>         0.1581
     14 C9         -2.9653    5.4636    6.8979 C.3       1 <0>        -0.1430
     15 C10        -3.7852    5.9487    8.0976 C.3       1 <0>         0.1147
     16 N3         -2.0581    3.4714    5.8069 N.pl3     1 <0>        -0.7134
     17 C11        -2.7124    3.2168    4.6137 C.ar      1 <0>         0.4555
     18 C12        -1.9835    2.7627    3.4927 C.ar      1 <0>        -0.1764
     19 C13        -0.5966    2.5558    3.5408 C.ar      1 <0>        -0.0167
     20 C14         0.0279    2.1148    2.4060 C.ar      1 <0>        -0.1602
     21 C15        -0.7118    1.8850    1.2500 C.ar      1 <0>         0.0971
     22 N4         -2.0094    2.0852    1.2097 N.ar      1 <0>        -0.4261
     23 C16        -2.6742    2.5088    2.2826 C.ar      1 <0>         0.2056
     24 C17        -4.0758    2.7260    2.2593 C.ar      1 <0>        -0.1211
     25 C18        -4.6963    3.1720    3.4111 C.ar      1 <0>         0.1757
     26 N5         -4.0166    3.3988    4.5254 N.ar      1 <0>        -0.5476
     27 C19        -4.8590    2.4801    1.0250 C.2       1 <0>        -0.0723
     28 C20        -6.0133    1.7028    1.0570 C.2       1 <0>        -0.1452
     29 C21        -6.7032    1.5051   -0.0890 C.2       1 <0>        -0.1750
     30 S1         -5.7291    2.4114   -1.2785 S.3       1 <0>         0.0399
     31 C22        -4.4610    3.0070   -0.1725 C.2       1 <0>        -0.1325
     32 C23        -0.0051    1.3998    0.0105 C.3       1 <0>         0.5204
     33 F1          0.0148    0.0010    0.0024 F         1 <0>        -0.1666
     34 F2          1.3071    1.8849    0.0019 F         1 <0>        -0.1681
     35 F3         -0.6811    1.8632   -1.1233 F         1 <0>        -0.1605
     36 H1         -2.6134   14.4079   11.6944 H         1 <0>         0.0839
     37 H2         -1.2871   13.3162   12.2198 H         1 <0>         0.0693
     38 H3         -2.8951   13.2234   13.0151 H         1 <0>         0.0695
     39 H4         -3.9069   12.4435   10.8783 H         1 <0>         0.0742
     40 H5         -2.2989   12.5363   10.0830 H         1 <0>         0.0738
     41 H6         -1.4525    8.4698   11.3198 H         1 <0>         0.1114
     42 H7         -3.0605    8.3769   12.1150 H         1 <0>         0.1134
     43 H8         -3.4663    8.0247    9.2245 H         1 <0>         0.4279
     44 H9         -2.3008    3.8490   10.3871 H         1 <0>         0.1023
     45 H10        -3.8254    3.4747    9.5142 H         1 <0>         0.0722
     46 H11        -1.0799    4.0512    8.2596 H         1 <0>         0.0746
     47 H12        -1.9356    2.4721    8.2919 H         1 <0>         0.0858
     48 H13        -3.7981    3.4533    6.9382 H         1 <0>         0.0995
     49 H14        -1.9706    5.9328    6.9179 H         1 <0>         0.0692
     50 H15        -3.4807    5.7365    5.9652 H         1 <0>         0.0846
     51 H16        -4.8100    5.5542    8.0331 H         1 <0>         0.0788
     52 H17        -3.8156    7.0482    8.1085 H         1 <0>         0.0811
     53 H18        -0.9711    3.3200    5.8813 H         1 <0>         0.4279
     54 H19        -0.0382    2.7397    4.4468 H         1 <0>         0.1488
     55 H20         1.0944    1.9447    2.4076 H         1 <0>         0.1542
     56 H21        -5.7632    3.3397    3.4026 H         1 <0>         0.1652
     57 H22        -6.3551    1.2674    1.9844 H         1 <0>         0.1331
     58 H23        -7.6099    0.9396   -0.2453 H         1 <0>         0.1860
     59 H24        -3.6021    3.6239   -0.3922 H         1 <0>         0.1806
@<TRIPOS>BOND
     1    1    2 1
     2    1   36 1
     3    1   37 1
     4    1   38 1
     5    2    3 1
     6    2   39 1
     7    2   40 1
     8    3    4 1
     9    4    5 2
    10    4    6 1
    11    6    7 1
    12    6   41 1
    13    6   42 1
    14    7    8 am
    15    7   43 1
    16    8    9 2
    17    8   10 am
    18   10   15 1
    19   10   11 1
    20   11   12 1
    21   11   44 1
    22   11   45 1
    23   12   13 1
    24   12   46 1
    25   12   47 1
    26   13   14 1
    27   13   16 1
    28   13   48 1
    29   14   15 1
    30   14   49 1
    31   14   50 1
    32   15   51 1
    33   15   52 1
    34   16   17 1
    35   16   53 1
    36   17   26 ar
    37   17   18 ar
    38   18   23 ar
    39   18   19 ar
    40   19   20 ar
    41   19   54 1
    42   20   21 ar
    43   20   55 1
    44   21   22 ar
    45   21   32 1
    46   22   23 ar
    47   23   24 ar
    48   24   25 ar
    49   24   27 1
    50   25   26 ar
    51   25   56 1
    52   27   31 2
    53   27   28 1
    54   28   29 2
    55   28   57 1
    56   29   30 1
    57   29   58 1
    58   30   31 1
    59   31   59 1
    60   32   33 1
    61   32   34 1
    62   32   35 1
@<TRIPOS>MOLECULE
ZINC38660496
   63    66     0     0     0
SMALL
USER_CHARGES

@<TRIPOS>ATOM
      1 C1         -2.4871    1.4041    1.8386 C.3       1 <0>        -0.1219
      2 C2         -2.4217   -0.1008    1.7933 C.ar      1 <0>        -0.0641
      3 C3         -3.5341   -0.8267    1.4046 C.ar      1 <0>        -0.1261
      4 C4         -3.4824   -2.2039    1.3610 C.ar      1 <0>        -0.0818
      5 C5         -2.3017   -2.8670    1.7105 C.ar      1 <0>        -0.0965
      6 C6         -1.1818   -2.1263    2.1019 C.ar      1 <0>        -0.0885
      7 C7         -1.2478   -0.7494    2.1353 C.ar      1 <0>        -0.1253
      8 C8         -2.2382   -4.3367    1.6672 C.2       1 <0>         0.0123
      9 C9         -1.0973   -4.9729    2.0052 C.2       1 <0>        -0.2039
     10 C10        -1.0342   -6.4331    1.9621 C.2       1 <0>         0.5003
     11 O1         -2.0102   -7.0742    1.6217 O.2       1 <0>        -0.4912
     12 O2          0.1065   -7.0692    2.3000 O.3       1 <0>        -0.2894
     13 C11         0.0906   -8.4274    2.3444 C.ar      1 <0>         0.1203
     14 C12         0.1370   -9.1620    1.1675 C.ar      1 <0>        -0.1245
     15 C13         0.1207  -10.5418    1.2143 C.ar      1 <0>        -0.0593
     16 C14         0.0582  -11.1977    2.4312 C.ar      1 <0>        -0.1164
     17 C15         0.0117  -10.4692    3.6095 C.ar      1 <0>         0.1308
     18 C16         0.0337   -9.0811    3.5645 C.ar      1 <0>        -0.1229
     19 O3         -0.0494  -11.0938    4.8114 O.3       1 <0>        -0.2423
     20 C17        -0.4482  -12.3747    4.8816 C.2       1 <0>         0.4429
     21 C18        -0.4299  -13.1913    3.8016 C.2       1 <0>        -0.2773
     22 C19         0.0420  -12.7030    2.4608 C.3       1 <0>         0.0834
     23 H1         -0.6293  -13.0722    1.6854 H         1 <0>         0.1044
     24 C20         1.4327  -13.2225    2.2016 C.ar      1 <0>        -0.0015
     25 C21         2.4652  -12.8844    3.0562 C.ar      1 <0>        -0.2149
     26 C22         3.7463  -13.3599    2.8208 C.ar      1 <0>         0.1525
     27 C23         3.9914  -14.1778    1.7243 C.ar      1 <0>         0.0276
     28 C24         2.9505  -14.5157    0.8677 C.ar      1 <0>         0.1529
     29 C25         1.6712  -14.0403    1.1130 C.ar      1 <0>        -0.2250
     30 O4          3.1852  -15.3157   -0.2068 O.3       1 <0>        -0.3015
     31 C26         2.0684  -15.6218   -1.0440 C.3       1 <0>         0.0239
     32 O5          5.2475  -14.6461    1.4896 O.3       1 <0>        -0.3123
     33 C27         5.5960  -15.8963    2.0877 C.3       1 <0>         0.0354
     34 O6          4.7617  -13.0260    3.6617 O.3       1 <0>        -0.3011
     35 C28         4.4369  -12.1816    4.7678 C.3       1 <0>         0.0253
     36 C29        -0.8685  -14.5474    3.9400 C.1       1 <0>         0.2719
     37 N1         -1.2165  -15.6232    4.0497 N.1       1 <0>        -0.4409
     38 N2         -0.8869  -12.8705    6.0840 N.pl3     1 <0>        -0.8285
     39 H2         -2.1939    1.8098    0.8704 H         1 <0>         0.0756
     40 H3         -3.5052    1.7168    2.0703 H         1 <0>         0.0699
     41 H4         -1.8094    1.7743    2.6079 H         1 <0>         0.0700
     42 H5         -4.4451   -0.3131    1.1350 H         1 <0>         0.1285
     43 H6         -4.3515   -2.7690    1.0581 H         1 <0>         0.1305
     44 H7         -0.2665   -2.6312    2.3732 H         1 <0>         0.1312
     45 H8         -0.3826   -0.1758    2.4331 H         1 <0>         0.1285
     46 H9         -3.1048   -4.9060    1.3650 H         1 <0>         0.1399
     47 H10        -0.2308   -4.4036    2.3074 H         1 <0>         0.1460
     48 H11         0.1855   -8.6543    0.2155 H         1 <0>         0.1393
     49 H12         0.1564  -11.1116    0.2975 H         1 <0>         0.1441
     50 H13         0.0023   -8.5109    4.4812 H         1 <0>         0.1483
     51 H14         2.2739  -12.2488    3.9081 H         1 <0>         0.1303
     52 H15         0.8608  -14.3060    0.4503 H         1 <0>         0.1361
     53 H16         2.3928  -16.2659   -1.8613 H         1 <0>         0.1034
     54 H17         1.3050  -16.1342   -0.4586 H         1 <0>         0.0569
     55 H18         1.6555  -14.6987   -1.4509 H         1 <0>         0.0590
     56 H19         5.5108  -15.8169    3.1714 H         1 <0>         0.0436
     57 H20         4.9217  -16.6726    1.7261 H         1 <0>         0.0438
     58 H21         6.6214  -16.1530    1.8217 H         1 <0>         0.0927
     59 H22         5.3345  -11.9931    5.3569 H         1 <0>         0.1035
     60 H23         4.0394  -11.2361    4.3987 H         1 <0>         0.0581
     61 H24         3.6891  -12.6713    5.3916 H         1 <0>         0.0550
     62 H25        -0.9057  -12.2981    6.8669 H         1 <0>         0.4124
     63 H26        -1.1782  -13.7934    6.1508 H         1 <0>         0.4266
@<TRIPOS>BOND
     1    1    2 1
     2    1   39 1
     3    1   40 1
     4    1   41 1
     5    2    7 ar
     6    2    3 ar
     7    3    4 ar
     8    3   42 1
     9    4    5 ar
    10    4   43 1
    11    5    6 ar
    12    5    8 1
    13    6    7 ar
    14    6   44 1
    15    7   45 1
    16    8    9 2
    17    8   46 1
    18    9   10 1
    19    9   47 1
    20   10   11 2
    21   10   12 1
    22   12   13 1
    23   13   18 ar
    24   13   14 ar
    25   14   15 ar
    26   14   48 1
    27   15   16 ar
    28   15   49 1
    29   16   22 1
    30   16   17 ar
    31   17   18 ar
    32   17   19 1
    33   18   50 1
    34   19   20 1
    35   20   21 2
    36   20   38 1
    37   21   22 1
    38   21   36 1
    39   22   23 1
    40   22   24 1
    41   24   29 ar
    42   24   25 ar
    43   25   26 ar
    44   25   51 1
    45   26   27 ar
    46   26   34 1
    47   27   28 ar
    48   27   32 1
    49   28   29 ar
    50   28   30 1
    51   29   52 1
    52   30   31 1
    53   31   53 1
    54   31   54 1
    55   31   55 1
    56   32   33 1
    57   33   56 1
    58   33   57 1
    59   33   58 1
    60   34   35 1
    61   35   59 1
    62   35   60 1
    63   35   61 1
    64   36   37 3
    65   38   62 1
    66   38   63 1
@<TRIPOS>MOLECULE
ZINC00735519
   75    78     0     0     0
SMALL
USER_CHARGES

@<TRIPOS>ATOM
      1 C1         -0.3042    2.2436   -1.6658 C.3       1 <0>        -0.1552
      2 C2         -0.3373    0.8956   -0.9429 C.3       1 <0>        -0.0510
      3 C3          0.1586    1.0747    0.4934 C.3       1 <0>        -0.1548
      4 C4         -1.7710    0.3617   -0.9246 C.3       1 <0>        -0.1438
      5 C5          0.5675   -0.0978   -1.6747 C.3       1 <0>        -0.1321
      6 C6          1.9797    0.4280   -1.6927 C.2       1 <0>         0.5151
      7 O1          2.2371    1.4926   -1.1715 O.2       1 <0>        -0.5068
      8 N1          2.9565   -0.2847   -2.2879 N.am      1 <0>        -0.6775
      9 C7          4.2493    0.2473   -2.3902 C.ar      1 <0>         0.1318
     10 C8          4.7557    1.0411   -1.3655 C.ar      1 <0>        -0.0848
     11 C9          6.0263    1.5694   -1.4563 C.ar      1 <0>        -0.1163
     12 C10         6.8109    1.3116   -2.5735 C.ar      1 <0>         0.2283
     13 C11         6.3066    0.5117   -3.6100 C.ar      1 <0>        -0.1340
     14 C12         5.0199   -0.0231   -3.5068 C.ar      1 <0>        -0.1095
     15 C13         7.1319    0.2327   -4.7994 C.2       1 <0>         0.5591
     16 O2          8.2529    0.6963   -4.8841 O.2       1 <0>        -0.5017
     17 N2          6.6439   -0.5362   -5.7930 N.am      1 <0>        -0.7314
     18 C14         7.4639   -0.8135   -6.9749 C.3       1 <0>         0.1710
     19 C15         6.6919   -1.6893   -7.9278 C.ar      1 <0>        -0.1632
     20 C16         6.7706   -3.0705   -7.8325 C.ar      1 <0>        -0.0564
     21 C17         6.0432   -3.8363   -8.7304 C.ar      1 <0>        -0.1734
     22 C18         5.2691   -3.2022   -9.6839 C.ar      1 <0>         0.1063
     23 N3          5.2184   -1.8861   -9.7453 N.ar      1 <0>        -0.4842
     24 C19         5.8921   -1.1261   -8.9038 C.ar      1 <0>         0.1185
     25 N4          8.0919    1.8451   -2.6644 N.pl3     1 <0>        -0.6582
     26 C20         8.3113    3.1640   -3.2746 C.3       1 <0>         0.1421
     27 C21         9.0583    4.0504   -2.2703 C.3       1 <0>         0.1343
     28 N5         10.2168    3.3057   -1.7575 N.pl3     1 <0>        -0.6616
     29 C22         9.9974    1.9868   -1.1473 C.3       1 <0>         0.1343
     30 C23         9.2498    1.1028   -2.1465 C.3       1 <0>         0.1427
     31 C24        11.5061    3.8427   -1.8489 C.ar      1 <0>         0.1397
     32 C25        12.0084    4.6249   -0.8192 C.ar      1 <0>        -0.0881
     33 C26        13.2822    5.1536   -0.9117 C.ar      1 <0>        -0.1540
     34 C27        14.0580    4.9051   -2.0287 C.ar      1 <0>        -0.0850
     35 C28        13.5640    4.1263   -3.0590 C.ar      1 <0>        -0.2089
     36 C29        12.2906    3.5884   -2.9718 C.ar      1 <0>         0.1201
     37 O3         11.8053    2.8180   -3.9822 O.3       1 <0>        -0.2955
     38 C30        12.6656    2.5996   -5.1022 C.3       1 <0>         0.0278
     39 H1          0.7172    2.6239   -1.6788 H         1 <0>         0.0821
     40 H2         -0.6575    2.1160   -2.6890 H         1 <0>         0.0464
     41 H3         -0.9488    2.9513   -1.1445 H         1 <0>         0.0532
     42 H4         -0.4860    1.7824    1.0147 H         1 <0>         0.0533
     43 H5          0.1350    0.1143    1.0083 H         1 <0>         0.0467
     44 H6          1.1800    1.4550    0.4803 H         1 <0>         0.0815
     45 H7         -2.1243    0.2341   -1.9478 H         1 <0>         0.0551
     46 H8         -1.7946   -0.5987   -0.4096 H         1 <0>         0.0552
     47 H9         -2.4156    1.0694   -0.4033 H         1 <0>         0.0599
     48 H10         0.5439   -1.0582   -1.1597 H         1 <0>         0.0967
     49 H11         0.2142   -0.2255   -2.6979 H         1 <0>         0.0968
     50 H12         2.7650   -1.1658   -2.6455 H         1 <0>         0.4105
     51 H13         4.1503    1.2449   -0.4947 H         1 <0>         0.1433
     52 H14         6.4121    2.1852   -0.6573 H         1 <0>         0.1324
     53 H15         4.6263   -0.6431   -4.2987 H         1 <0>         0.1240
     54 H16         5.7497   -0.9061   -5.7255 H         1 <0>         0.3965
     55 H17         7.7186    0.1244   -7.4685 H         1 <0>         0.0799
     56 H18         8.3778   -1.3242   -6.6714 H         1 <0>         0.0784
     57 H19         7.3844   -3.5384   -7.0770 H         1 <0>         0.1365
     58 H20         6.0811   -4.9147   -8.6856 H         1 <0>         0.1385
     59 H21         4.6994   -3.7916  -10.3871 H         1 <0>         0.1585
     60 H22         5.8217   -0.0513   -8.9816 H         1 <0>         0.1566
     61 H23         8.9084    3.0535   -4.1798 H         1 <0>         0.0626
     62 H24         7.3512    3.6179   -3.5198 H         1 <0>         0.0609
     63 H25         9.3982    4.9593   -2.7668 H         1 <0>         0.0679
     64 H26         8.3944    4.3078   -1.4450 H         1 <0>         0.0479
     65 H27        10.9576    1.5329   -0.9021 H         1 <0>         0.0680
     66 H28         9.4004    2.0973   -0.2421 H         1 <0>         0.0472
     67 H29         8.9092    0.1959   -1.6469 H         1 <0>         0.0602
     68 H30         9.9152    0.8422   -2.9696 H         1 <0>         0.0621
     69 H31        11.4043    4.8209    0.0543 H         1 <0>         0.1267
     70 H32        13.6721    5.7627   -0.1096 H         1 <0>         0.1226
     71 H33        15.0526    5.3206   -2.0969 H         1 <0>         0.1226
     72 H34        14.1727    3.9341   -3.9302 H         1 <0>         0.1256
     73 H35        12.9176    3.5568   -5.5588 H         1 <0>         0.0512
     74 H36        13.5777    2.1048   -4.7687 H         1 <0>         0.0511
     75 H37        12.1576    1.9708   -5.8333 H         1 <0>         0.0978
@<TRIPOS>BOND
     1    1    2 1
     2    1   39 1
     3    1   40 1
     4    1   41 1
     5    2    3 1
     6    2    4 1
     7    2    5 1
     8    3   42 1
     9    3   43 1
    10    3   44 1
    11    4   45 1
    12    4   46 1
    13    4   47 1
    14    5    6 1
    15    5   48 1
    16    5   49 1
    17    6    7 2
    18    6    8 am
    19    8    9 1
    20    8   50 1
    21    9   14 ar
    22    9   10 ar
    23   10   11 ar
    24   10   51 1
    25   11   12 ar
    26   11   52 1
    27   12   13 ar
    28   12   25 1
    29   13   14 ar
    30   13   15 1
    31   14   53 1
    32   15   16 2
    33   15   17 am
    34   17   18 1
    35   17   54 1
    36   18   19 1
    37   18   55 1
    38   18   56 1
    39   19   24 ar
    40   19   20 ar
    41   20   21 ar
    42   20   57 1
    43   21   22 ar
    44   21   58 1
    45   22   23 ar
    46   22   59 1
    47   23   24 ar
    48   24   60 1
    49   25   30 1
    50   25   26 1
    51   26   27 1
    52   26   61 1
    53   26   62 1
    54   27   28 1
    55   27   63 1
    56   27   64 1
    57   28   29 1
    58   28   31 1
    59   29   30 1
    60   29   65 1
    61   29   66 1
    62   30   67 1
    63   30   68 1
    64   31   36 ar
    65   31   32 ar
    66   32   33 ar
    67   32   69 1
    68   33   34 ar
    69   33   70 1
    70   34   35 ar
    71   34   71 1
    72   35   36 ar
    73   35   72 1
    74   36   37 1
    75   37   38 1
    76   38   73 1
    77   38   74 1
    78   38   75 1
@<TRIPOS>MOLECULE
ZINC10098417
   63    65     0     0     0
SMALL
USER_CHARGES
N-(9-cyano-3,3,5,5-tetramethyl-7-thia-4-azabicyclo[4.3.0]nona-8,10-dien-8-yl)-4-(isopropyl-methyl-sulfamoyl)-benzamide
@<TRIPOS>ATOM
      1 C1          0.7182   -0.4975   -1.2568 C.3       1 <0>        -0.1619
      2 C2          0.0021   -0.0041    0.0020 C.3       1 <0>         0.1362
      3 C3          0.7421   -0.5109    1.2415 C.3       1 <0>        -0.1658
      4 N1         -0.0178    1.4608    0.0101 N.pl3     1 <0>        -0.9924
      5 C4          1.2408    2.2105    0.0021 C.3       1 <0>         0.0873
      6 S1         -1.4630    2.2692    0.0213 S.o2      1 <0>         2.6835
      7 O1         -1.2121    3.5573   -0.5237 O.2       1 <0>        -0.9417
      8 O2         -2.4280    1.3836   -0.5298 O.2       1 <0>        -0.9439
      9 C5         -1.9097    2.5144    1.7080 C.ar      1 <0>        -0.6430
     10 C6         -2.6749    1.5655    2.3628 C.ar      1 <0>        -0.0228
     11 C7         -3.0233    1.7486    3.6849 C.ar      1 <0>        -0.1032
     12 C8         -2.6113    2.8995    4.3591 C.ar      1 <0>        -0.0948
     13 C9         -1.8442    3.8555    3.6909 C.ar      1 <0>        -0.0662
     14 C10        -1.4984    3.6575    2.3702 C.ar      1 <0>        -0.0228
     15 C11        -2.9852    3.1047    5.7742 C.2       1 <0>         0.5633
     16 O3         -2.6246    4.1077    6.3588 O.2       1 <0>        -0.4792
     17 N2         -3.7258    2.1798    6.4164 N.am      1 <0>        -0.6146
     18 C12        -4.0766    2.3723    7.7441 C.2       1 <0>         0.1117
     19 C13        -4.8274    1.5399    8.5660 C.2       1 <0>        -0.1261
     20 C14        -5.0475    1.9739    9.9283 C.2       1 <0>        -0.0299
     21 C15        -4.4979    3.1675   10.2567 C.2       1 <0>        -0.2894
     22 S2         -3.6886    3.7070    8.7788 S.3       1 <0>         0.3549
     23 C16        -4.5835    3.8517   11.5817 C.3       1 <0>         0.1683
     24 C17        -5.1935    1.5562   12.3524 C.3       1 <0>         0.0645
     25 C18        -5.8207    1.2120   10.9962 C.3       1 <0>        -0.0695
     26 C19        -3.7800    0.9711   12.4181 C.3       1 <0>        -0.1710
     27 C20        -6.0375    0.8784   13.4481 C.3       1 <0>        -0.1822
     28 C21        -3.1804    4.2984   12.0160 C.3       1 <0>        -0.1782
     29 C22        -5.4550    5.1118   11.4219 C.3       1 <0>        -0.1797
     30 C23        -5.3597    0.3062    8.0703 C.1       1 <0>         0.2472
     31 N3         -5.7819   -0.6724    7.6771 N.1       1 <0>        -0.3896
     32 H1          0.1910   -0.1364   -2.1398 H         1 <0>         0.0635
     33 H2          1.7408   -0.1202   -1.2645 H         1 <0>         0.0639
     34 H3          0.7330   -1.5874   -1.2628 H         1 <0>         0.0722
     35 H4         -1.0205   -0.3814    0.0098 H         1 <0>         0.1012
     36 H5          0.2319   -0.1594    2.1383 H         1 <0>         0.0559
     37 H6          0.7568   -1.6008    1.2356 H         1 <0>         0.0726
     38 H7          1.7647   -0.1336    1.2338 H         1 <0>         0.0654
     39 H8          1.5432    2.4019   -1.0275 H         1 <0>         0.0667
     40 H9          1.1025    3.1582    0.5224 H         1 <0>         0.0722
     41 H10         2.0133    1.6290    0.5054 H         1 <0>         0.0793
     42 H11        -2.9967    0.6777    1.8387 H         1 <0>         0.1536
     43 H12        -3.6170    1.0051    4.1961 H         1 <0>         0.1346
     44 H13        -1.5220    4.7479    4.2069 H         1 <0>         0.1539
     45 H14        -0.9050    4.3963    1.8521 H         1 <0>         0.1559
     46 H15        -4.0135    1.3795    5.9499 H         1 <0>         0.4284
     47 H16        -6.8662    1.5179   10.9871 H         1 <0>         0.1104
     48 H17        -5.7457    0.1393   10.8255 H         1 <0>         0.1210
     49 H18        -3.3576    1.1515   13.4066 H         1 <0>         0.0837
     50 H19        -3.8220   -0.1020   12.2312 H         1 <0>         0.1044
     51 H20        -3.1543    1.4472   11.6632 H         1 <0>         0.0833
     52 H21        -7.0541    1.2703   13.4181 H         1 <0>         0.0834
     53 H22        -6.0578   -0.1979   13.2772 H         1 <0>         0.1074
     54 H23        -5.5977    1.0831   14.4242 H         1 <0>         0.0862
     55 H24        -2.7731    4.9873   11.2761 H         1 <0>         0.1072
     56 H25        -3.2412    4.7979   12.9829 H         1 <0>         0.0921
     57 H26        -2.5307    3.4269   12.0975 H         1 <0>         0.0879
     58 H27        -6.4511    4.8245   11.0853 H         1 <0>         0.0867
     59 H28        -5.5296    5.6259   12.3802 H         1 <0>         0.0906
     60 H29        -5.0010    5.7768   10.6872 H         1 <0>         0.1080
     61 N4         -5.2018    3.0122   12.6481 N.4       1 <0>        -0.5091
     62 H30        -6.1765    3.3112   12.7699 H         1 <0>         0.4326
     63 H31        -4.6846    3.1671   13.5215 H         1 <0>         0.4359
@<TRIPOS>BOND
     1    1    2 1
     2    1   32 1
     3    1   33 1
     4    1   34 1
     5    2    3 1
     6    2    4 1
     7    2   35 1
     8    3   36 1
     9    3   37 1
    10    3   38 1
    11    4    5 1
    12    4    6 1
    13    5   39 1
    14    5   40 1
    15    5   41 1
    16    6    7 2
    17    6    8 2
    18    6    9 1
    19    9   14 ar
    20    9   10 ar
    21   10   11 ar
    22   10   42 1
    23   11   12 ar
    24   11   43 1
    25   12   13 ar
    26   12   15 1
    27   13   14 ar
    28   13   44 1
    29   14   45 1
    30   15   16 2
    31   15   17 am
    32   17   18 1
    33   17   46 1
    34   18   22 1
    35   18   19 2
    36   19   20 1
    37   19   30 1
    38   20   25 1
    39   20   21 2
    40   21   22 1
    41   21   23 1
    42   23   28 1
    43   23   29 1
    44   23   61 1
    45   24   25 1
    46   24   26 1
    47   24   27 1
    48   24   61 1
    49   25   47 1
    50   25   48 1
    51   26   49 1
    52   26   50 1
    53   26   51 1
    54   27   52 1
    55   27   53 1
    56   27   54 1
    57   28   55 1
    58   28   56 1
    59   28   57 1
    60   29   58 1
    61   29   59 1
    62   29   60 1
    63   30   31 3
    64   61   62 1
    65   61   63 1
@<TRIPOS>MOLECULE
ZINC24963757
   62    65     0     0     0
SMALL
USER_CHARGES
N-[(1S)-1-[(5-benzyl-6,7-dihydro-4H-thiazolo[5,4-c]pyridin-2-yl)carbamoyl]-3-methylsulfanyl-propyl]benzamide
@<TRIPOS>ATOM
      1 C1          2.7748    5.6231  -14.3818 C.3       1 <0>        -0.1171
      2 S1          2.7582    4.9231  -12.7084 S.3       1 <0>        -0.2753
      3 C2          3.4624    6.2378  -11.6758 C.3       1 <0>        -0.0793
      4 C3          3.5071    5.7732  -10.2187 C.3       1 <0>        -0.1112
      5 C4          4.1010    6.8820   -9.3478 C.3       1 <0>         0.1440
      6 H1          3.5626    7.8300   -9.4938 H         1 <0>         0.1292
      7 C5          4.0323    6.4739   -7.8988 C.2       1 <0>         0.5194
      8 O1          5.0505    6.3784   -7.2467 O.2       1 <0>        -0.4573
      9 N1          2.8394    6.2149   -7.3275 N.am      1 <0>        -0.6297
     10 C6          2.7760    5.8384   -5.9909 C.2       1 <0>         0.3473
     11 N2          3.7591    5.6808   -5.1274 N.2       1 <0>        -0.5242
     12 C7          3.5419    5.3132   -3.8696 C.2       1 <0>         0.1278
     13 C8          2.2429    5.1070   -3.5226 C.2       1 <0>        -0.3263
     14 S2          1.3793    5.4538   -5.0291 S.3       1 <0>         0.1585
     15 C9          1.7222    4.6896   -2.1904 C.3       1 <0>         0.1142
     16 N3          2.8587    4.1942   -1.3882 N.4       1 <0>        -0.3968
     17 C10         3.9815    5.1408   -1.4401 C.3       1 <0>        -0.0001
     18 C11         4.6349    5.1162   -2.8247 C.3       1 <0>        -0.0710
     19 C12         2.4510    3.9366   -0.0006 C.3       1 <0>         0.0483
     20 C13         1.1563    3.1654    0.0076 C.ar      1 <0>        -0.1612
     21 C14         1.1750    1.7832    0.0004 C.ar      1 <0>        -0.0931
     22 C15        -0.0126    1.0758    0.0080 C.ar      1 <0>        -0.1132
     23 C16        -1.2190    1.7506    0.0173 C.ar      1 <0>        -0.0842
     24 C17        -1.2377    3.1328    0.0299 C.ar      1 <0>        -0.1137
     25 C18        -0.0501    3.8402    0.0228 C.ar      1 <0>        -0.0978
     26 N4          5.4986    7.1048   -9.7266 N.am      1 <0>        -0.7281
     27 C19         5.7960    7.9280  -10.7515 C.2       1 <0>         0.5699
     28 O2          4.9046    8.4857  -11.3614 O.2       1 <0>        -0.5315
     29 C20         7.2063    8.1528  -11.1338 C.ar      1 <0>        -0.1411
     30 C21         8.2325    7.5186  -10.4317 C.ar      1 <0>        -0.0842
     31 C22         9.5462    7.7286  -10.7969 C.ar      1 <0>        -0.1264
     32 C23         9.8480    8.5743  -11.8495 C.ar      1 <0>        -0.0874
     33 C24         8.8359    9.2106  -12.5459 C.ar      1 <0>        -0.1257
     34 C25         7.5177    9.0048  -12.1946 C.ar      1 <0>        -0.0576
     35 H2          2.3609    4.8902  -15.0899 H         1 <0>         0.1053
     36 H3          3.8090    5.8655  -14.6676 H         1 <0>         0.0784
     37 H4          2.1646    6.5381  -14.4025 H         1 <0>         0.0798
     38 H5          4.4820    6.4671  -12.0190 H         1 <0>         0.0896
     39 H6          2.8377    7.1398  -11.7540 H         1 <0>         0.0929
     40 H7          2.4875    5.5439   -9.8755 H         1 <0>         0.0864
     41 H8          4.1318    4.8712  -10.1404 H         1 <0>         0.0877
     42 H9          1.9160    6.3014   -7.9189 H         1 <0>         0.4657
     43 H10         1.2546    5.5520   -1.6929 H         1 <0>         0.1378
     44 H11         0.9753    3.8928   -2.3219 H         1 <0>         0.1420
     45 H12         3.6140    6.1571   -1.2348 H         1 <0>         0.1325
     46 H13         4.7311    4.8624   -0.6847 H         1 <0>         0.1455
     47 H14         5.1317    4.1491   -2.9916 H         1 <0>         0.1131
     48 H15         5.3734    5.9271   -2.9091 H         1 <0>         0.1337
     49 H16         3.2305    3.3500    0.5077 H         1 <0>         0.1433
     50 H17         2.3113    4.8932    0.5242 H         1 <0>         0.1362
     51 H18         2.1175    1.2560   -0.0115 H         1 <0>         0.1319
     52 H19         0.0021   -0.0041    0.0020 H         1 <0>         0.1359
     53 H20        -2.1469    1.1980    0.0188 H         1 <0>         0.1355
     54 H21        -2.1802    3.6600    0.0414 H         1 <0>         0.1358
     55 H22        -0.0647    4.9201    0.0288 H         1 <0>         0.1299
     56 H23         6.3052    6.6002   -9.1745 H         1 <0>         0.4337
     57 H24         7.9984    6.8617   -9.6071 H         1 <0>         0.1248
     58 H25        10.3409    7.2349  -10.2574 H         1 <0>         0.1312
     59 H26        10.8783    8.7383  -12.1290 H         1 <0>         0.1308
     60 H27         9.0782    9.8695  -13.3665 H         1 <0>         0.1331
     61 H28         6.7286    9.5020  -12.7390 H         1 <0>         0.1366
     62 H29         3.1981    3.2402   -1.8179 H         1 <0>         0.4457
@<TRIPOS>BOND
     1    1    2 1
     2    1   35 1
     3    1   36 1
     4    1   37 1
     5    2    3 1
     6    3    4 1
     7    3   38 1
     8    3   39 1
     9    4    5 1
    10    4   40 1
    11    4   41 1
    12    5    6 1
    13    5    7 1
    14    5   26 1
    15    7    8 2
    16    7    9 am
    17    9   10 1
    18    9   42 1
    19   10   14 1
    20   10   11 2
    21   11   12 1
    22   12   18 1
    23   12   13 2
    24   13   14 1
    25   13   15 1
    26   15   16 1
    27   15   43 1
    28   15   44 1
    29   16   17 1
    30   16   19 1
    31   16   62 1
    32   17   18 1
    33   17   45 1
    34   17   46 1
    35   18   47 1
    36   18   48 1
    37   19   20 1
    38   19   49 1
    39   19   50 1
    40   20   25 ar
    41   20   21 ar
    42   21   22 ar
    43   21   51 1
    44   22   23 ar
    45   22   52 1
    46   23   24 ar
    47   23   53 1
    48   24   25 ar
    49   24   54 1
    50   25   55 1
    51   26   27 am
    52   26   56 1
    53   27   28 2
    54   27   29 1
    55   29   34 ar
    56   29   30 ar
    57   30   31 ar
    58   30   57 1
    59   31   32 ar
    60   31   58 1
    61   32   33 ar
    62   32   59 1
    63   33   34 ar
    64   33   60 1
    65   34   61 1
@<TRIPOS>MOLECULE
ZINC38793476
   57    61     0     0     0
SMALL
USER_CHARGES

@<TRIPOS>ATOM
      1 C1         -0.9078    1.5918   -0.2963 C.3       1 <0>        -0.1623
      2 C2         -1.1414    0.0831   -0.3964 C.3       1 <0>        -0.0862
      3 H1         -2.1422   -0.1544   -0.0356 H         1 <0>         0.1017
      4 C3         -1.0093   -0.3514   -1.8334 C.2       1 <0>         0.5313
      5 O1          0.0195   -0.8645   -2.2196 O.2       1 <0>        -0.4829
      6 N1         -2.0345   -0.1699   -2.6893 N.am      1 <0>        -0.6667
      7 C4         -1.8790   -0.4822   -4.0404 C.ar      1 <0>         0.1646
      8 C5         -1.1023   -1.5735   -4.4154 C.ar      1 <0>        -0.1201
      9 C6         -0.9463   -1.8844   -5.7477 C.ar      1 <0>        -0.0487
     10 C7         -1.5700   -1.1021   -6.7238 C.ar      1 <0>        -0.0331
     11 C8         -2.3501   -0.0065   -6.3432 C.ar      1 <0>        -0.0493
     12 C9         -2.5058    0.2952   -5.0088 C.ar      1 <0>        -0.1418
     13 C10        -1.4097   -1.4220   -8.1103 C.1       1 <0>         0.2452
     14 N2         -1.2825   -1.6758   -9.2103 N.1       1 <0>        -0.4031
     15 S1          0.0880   -0.7876    0.6140 S.3       1 <0>        -0.1527
     16 C11        -0.2983   -0.2776    2.3114 C.3       1 <0>         0.3741
     17 H2          0.3962   -0.7378    3.0143 H         1 <0>         0.1399
     18 N3         -0.2554    1.1892    2.4308 N.pl3     1 <0>        -0.5816
     19 N4         -1.5401    1.5951    2.8102 N.2       1 <0>        -0.1660
     20 C12        -2.3441    0.5721    2.9337 C.2       1 <0>         0.2639
     21 N5         -1.6860   -0.6316    2.6522 N.pl3     1 <0>        -0.5923
     22 C13        -2.2362   -1.9159    2.6866 C.ar      1 <0>         0.1406
     23 C14        -3.0381   -2.3577    1.6418 C.ar      1 <0>        -0.1067
     24 C15        -3.5805   -3.6272    1.6786 C.ar      1 <0>        -0.0964
     25 C16        -3.3261   -4.4588    2.7551 C.ar      1 <0>        -0.0195
     26 C17        -2.5280   -4.0212    3.7975 C.ar      1 <0>        -0.0934
     27 C18        -1.9776   -2.7551    3.7630 C.ar      1 <0>        -0.0939
     28 Cl1        -4.0100   -6.0538    2.7981 Cl        1 <0>        -0.0394
     29 C19        -3.6948    0.6671    3.3031 C.2       1 <0>         0.1291
     30 C20        -4.4288    1.8328    3.5240 C.ar      1 <0>        -0.1367
     31 C21        -4.0884    3.2007    3.4563 C.ar      1 <0>        -0.0144
     32 C22        -5.0279    4.1428    3.7285 C.ar      1 <0>        -0.1456
     33 C23        -6.3342    3.7934    4.0774 C.ar      1 <0>         0.0473
     34 C24        -6.7304    2.4995    4.1615 C.ar      1 <0>        -0.2037
     35 C25        -5.8045    1.4592    3.8908 C.ar      1 <0>         0.3150
     36 N6         -5.9384    0.1473    3.9029 N.pl3     1 <0>        -0.5943
     37 C26        -4.6609   -0.4729    3.5385 C.3       1 <0>         0.0782
     38 H3          0.0930    1.8292   -0.6571 H         1 <0>         0.0819
     39 H4         -1.6465    2.1150   -0.9035 H         1 <0>         0.0717
     40 H5         -1.0033    1.9061    0.7430 H         1 <0>         0.0856
     41 H6         -2.8804    0.1779   -2.3661 H         1 <0>         0.4119
     42 H7         -0.6207   -2.1775   -3.6606 H         1 <0>         0.1481
     43 H8         -0.3425   -2.7314   -6.0381 H         1 <0>         0.1403
     44 H9         -2.8331    0.6003   -7.0947 H         1 <0>         0.1410
     45 H10        -3.1121    1.1390   -4.7138 H         1 <0>         0.1372
     46 H11         0.5124    1.7617    2.2772 H         1 <0>         0.4709
     47 H12        -3.2375   -1.7088    0.8018 H         1 <0>         0.1336
     48 H13        -4.2040   -3.9712    0.8666 H         1 <0>         0.1483
     49 H14        -2.3318   -4.6722    4.6367 H         1 <0>         0.1495
     50 H15        -1.3506   -2.4161    4.5744 H         1 <0>         0.1430
     51 H16        -3.0848    3.4971    3.1895 H         1 <0>         0.1614
     52 H17        -4.7582    5.1871    3.6742 H         1 <0>         0.1566
     53 H18        -7.0487    4.5758    4.2863 H         1 <0>         0.1614
     54 H19        -7.7479    2.2614    4.4343 H         1 <0>         0.1614
     55 H20        -4.7739   -1.0630    2.6291 H         1 <0>         0.1691
     56 H21        -4.3060   -1.1033    4.3539 H         1 <0>         0.1714
     57 H22        -6.7544   -0.3317    4.1160 H         1 <0>         0.4555
@<TRIPOS>BOND
     1    1    2 1
     2    1   38 1
     3    1   39 1
     4    1   40 1
     5    2    3 1
     6    2    4 1
     7    2   15 1
     8    4    5 2
     9    4    6 am
    10    6    7 1
    11    6   41 1
    12    7   12 ar
    13    7    8 ar
    14    8    9 ar
    15    8   42 1
    16    9   10 ar
    17    9   43 1
    18   10   11 ar
    19   10   13 1
    20   11   12 ar
    21   11   44 1
    22   12   45 1
    23   13   14 3
    24   15   16 1
    25   16   17 1
    26   16   21 1
    27   16   18 1
    28   18   19 1
    29   18   46 1
    30   19   20 2
    31   20   21 1
    32   20   29 1
    33   21   22 1
    34   22   27 ar
    35   22   23 ar
    36   23   24 ar
    37   23   47 1
    38   24   25 ar
    39   24   48 1
    40   25   26 ar
    41   25   28 1
    42   26   27 ar
    43   26   49 1
    44   27   50 1
    45   29   37 1
    46   29   30 2
    47   30   35 ar
    48   30   31 ar
    49   31   32 ar
    50   31   51 1
    51   32   33 ar
    52   32   52 1
    53   33   34 ar
    54   33   53 1
    55   34   35 ar
    56   34   54 1
    57   35   36 2
    58   36   37 1
    59   36   57 1
    60   37   55 1
    61   37   56 1
@<TRIPOS>MOLECULE
ZINC39686576
   69    72     0     0     0
SMALL
USER_CHARGES

@<TRIPOS>ATOM
      1 C1          0.1427    1.6092    0.4444 C.3       1 <0>        -0.1219
      2 C2          0.1328    0.1061    0.3368 C.ar      1 <0>        -0.1054
      3 C3          0.1418   -0.4964   -0.9079 C.ar      1 <0>        -0.0585
      4 C4          0.1324   -1.8755   -1.0173 C.ar      1 <0>        -0.1123
      5 C5          0.1143   -2.6622    0.1173 C.ar      1 <0>         0.0109
      6 C6          0.1055   -2.0623    1.3795 C.ar      1 <0>        -0.1557
      7 C7          0.1204   -0.6672    1.4826 C.ar      1 <0>         0.1437
      8 F1          0.1171   -0.0775    2.6981 F         1 <0>        -0.1187
      9 C8          0.0857   -2.8962    2.5974 C.2       1 <0>         0.5988
     10 O1          1.1304   -3.2481    3.1102 O.2       1 <0>        -0.5056
     11 N1         -1.0904   -3.2675    3.1408 N.am      1 <0>        -0.6120
     12 C9         -2.4548   -2.9456    2.6603 C.3       1 <0>         0.1121
     13 C10        -3.2635   -4.2432    2.8832 C.3       1 <0>        -0.1111
     14 H1         -3.2817   -4.8404    1.9716 H         1 <0>         0.1081
     15 C11        -2.5094   -4.9890    3.9969 C.3       1 <0>        -0.0707
     16 C12        -1.3113   -4.0957    4.3505 C.3       1 <0>         0.1092
     17 C13        -3.4105   -5.1723    5.2142 C.3       1 <0>        -0.1474
     18 C14        -2.6582   -5.9670    6.2854 C.3       1 <0>        -0.0082
     19 N2         -2.2641   -7.2725    5.7425 N.4       1 <0>        -0.5041
     20 C15        -1.3240   -7.0890    4.6302 C.3       1 <0>        -0.0113
     21 C16        -2.0199   -6.3419    3.4889 C.3       1 <0>        -0.1358
     22 C17        -4.6672   -3.9174    3.3241 C.2       1 <0>         0.5194
     23 O2         -4.8813   -2.9177    3.9765 O.2       1 <0>        -0.5257
     24 N3         -5.6847   -4.7370    2.9934 N.am      1 <0>        -0.7124
     25 C18        -7.0494   -4.4203    3.4219 C.3       1 <0>         0.1453
     26 H2         -7.1917   -3.3397    3.4123 H         1 <0>         0.0927
     27 C19        -7.2753   -4.9519    4.8387 C.3       1 <0>        -0.1633
     28 C20        -8.0489   -5.0749    2.4662 C.3       1 <0>        -0.0805
     29 C21        -7.9091   -4.4625    1.0964 C.ar      1 <0>        -0.1169
     30 C22        -8.7291   -3.4163    0.7197 C.ar      1 <0>        -0.0776
     31 C23        -8.6016   -2.8545   -0.5370 C.ar      1 <0>        -0.1467
     32 C24        -7.6532   -3.3375   -1.4199 C.ar      1 <0>        -0.0799
     33 C25        -6.8307   -4.3829   -1.0480 C.ar      1 <0>        -0.2026
     34 C26        -6.9531   -4.9451    0.2146 C.ar      1 <0>         0.1272
     35 O3         -6.1413   -5.9701    0.5850 O.3       1 <0>        -0.3254
     36 C27        -5.1801   -6.4155   -0.3741 C.3       1 <0>         0.0225
     37 Cl1         0.1020   -4.3924   -0.0238 Cl        1 <0>        -0.0477
     38 H3          1.1727    1.9644    0.4766 H         1 <0>         0.0852
     39 H4         -0.3629    2.0388   -0.4205 H         1 <0>         0.0829
     40 H5         -0.3746    1.9117    1.3549 H         1 <0>         0.0763
     41 H6          0.1559    0.1129   -1.7995 H         1 <0>         0.1537
     42 H7          0.1388   -2.3382   -1.9932 H         1 <0>         0.1516
     43 H8         -2.8798   -2.1282    3.2428 H         1 <0>         0.1026
     44 H9         -2.4339   -2.6880    1.6014 H         1 <0>         0.0888
     45 H10        -0.4322   -4.7051    4.5602 H         1 <0>         0.0912
     46 H11        -1.5501   -3.4637    5.2059 H         1 <0>         0.0884
     47 H12        -3.6872   -4.1961    5.6125 H         1 <0>         0.1285
     48 H13        -4.3097   -5.7152    4.9228 H         1 <0>         0.0987
     49 H14        -1.7678   -5.4158    6.5879 H         1 <0>         0.1335
     50 H15        -3.3054   -6.1137    7.1501 H         1 <0>         0.1398
     51 H16        -1.8227   -7.8176    6.4678 H         1 <0>         0.4342
     52 H17        -0.4654   -6.5111    4.9721 H         1 <0>         0.1345
     53 H18        -0.9875   -8.0629    4.2747 H         1 <0>         0.1399
     54 H19        -2.8691   -6.9268    3.1356 H         1 <0>         0.0971
     55 H20        -1.3160   -6.1904    2.6706 H         1 <0>         0.1170
     56 H21        -5.5135   -5.5366    2.4716 H         1 <0>         0.4051
     57 H22        -7.1330   -6.0325    4.8483 H         1 <0>         0.0554
     58 H23        -6.5632   -4.4856    5.5196 H         1 <0>         0.0603
     59 H24        -8.2906   -4.7163    5.1576 H         1 <0>         0.0727
     60 H25        -7.8489   -6.1448    2.4081 H         1 <0>         0.0813
     61 H26        -9.0622   -4.9142    2.8343 H         1 <0>         0.0919
     62 H27        -9.4705   -3.0373    1.4074 H         1 <0>         0.1311
     63 H28        -9.2440   -2.0372   -0.8298 H         1 <0>         0.1275
     64 H29        -7.5558   -2.8971   -2.4013 H         1 <0>         0.1270
     65 H30        -6.0902   -4.7599   -1.7379 H         1 <0>         0.1278
     66 H31        -4.5989   -7.2355    0.0478 H         1 <0>         0.0984
     67 H32        -5.6946   -6.7589   -1.2716 H         1 <0>         0.0615
     68 H33        -4.5137   -5.5918   -0.6300 H         1 <0>         0.0559
     69 H34        -3.0838   -7.7590    5.4115 H         1 <0>         0.4276
@<TRIPOS>BOND
     1    1    2 1
     2    1   38 1
     3    1   39 1
     4    1   40 1
     5    2    7 ar
     6    2    3 ar
     7    3    4 ar
     8    3   41 1
     9    4    5 ar
    10    4   42 1
    11    5    6 ar
    12    5   37 1
    13    6    7 ar
    14    6    9 1
    15    7    8 1
    16    9   10 2
    17    9   11 am
    18   11   16 1
    19   11   12 1
    20   12   13 1
    21   12   43 1
    22   12   44 1
    23   13   14 1
    24   13   15 1
    25   13   22 1
    26   15   21 1
    27   15   16 1
    28   15   17 1
    29   16   45 1
    30   16   46 1
    31   17   18 1
    32   17   47 1
    33   17   48 1
    34   18   19 1
    35   18   49 1
    36   18   50 1
    37   19   20 1
    38   19   51 1
    39   19   69 1
    40   20   21 1
    41   20   52 1
    42   20   53 1
    43   21   54 1
    44   21   55 1
    45   22   23 2
    46   22   24 am
    47   24   25 1
    48   24   56 1
    49   25   26 1
    50   25   27 1
    51   25   28 1
    52   27   57 1
    53   27   58 1
    54   27   59 1
    55   28   29 1
    56   28   60 1
    57   28   61 1
    58   29   34 ar
    59   29   30 ar
    60   30   31 ar
    61   30   62 1
    62   31   32 ar
    63   31   63 1
    64   32   33 ar
    65   32   64 1
    66   33   34 ar
    67   33   65 1
    68   34   35 1
    69   35   36 1
    70   36   66 1
    71   36   67 1
    72   36   68 1
@<TRIPOS>MOLECULE
ZINC09262189
   37    38     0     0     0
SMALL
USER_CHARGES

@<TRIPOS>ATOM
      1 C1         -0.0352    1.3757    0.0354 C.ar      1 <0>         0.0007
      2 C2          1.1665    2.0883    0.0092 C.ar      1 <0>        -0.1843
      3 C3          2.3832    1.3940   -0.0231 C.ar      1 <0>         0.1891
      4 C4          2.3836    0.0068   -0.0288 C.ar      1 <0>        -0.1198
      5 C5          1.1886   -0.6863   -0.0026 C.ar      1 <0>         0.0053
      6 C6         -0.0171   -0.0034    0.0294 C.ar      1 <0>        -0.0486
      7 Cl1        -1.5107   -0.8876    0.0620 Cl        1 <0>        -0.0035
      8 Br1         4.0218   -0.9367   -0.0730 Br        1 <0>         0.0281
      9 O1          3.5565    2.0760   -0.0492 O.3       1 <0>        -0.4772
     10 C7          1.1542    3.5620    0.0150 C.2       1 <0>         0.3809
     11 N1          2.2668    4.2181    0.0986 N.pl3     1 <0>        -0.5313
     12 C8          2.2490    5.6782    0.2166 C.3       1 <0>         0.0259
     13 C9          2.8167    6.0869    1.5773 C.3       1 <0>         0.0759
     14 N2          2.7990    7.5470    1.6953 N.pl3     1 <0>        -0.6569
     15 C10         2.0204    8.1361    2.6150 C.2       1 <0>         0.3047
     16 C11         1.9224    9.5293    2.6585 C.ar      1 <0>        -0.3158
     17 C12         2.7482   10.3672    1.7804 C.ar      1 <0>         0.4234
     18 C13         2.6131   11.7641    1.8618 C.ar      1 <0>        -0.2203
     19 C14         1.7299   12.3123    2.7421 C.ar      1 <0>         0.0273
     20 C15         0.9455   11.5197    3.5760 C.ar      1 <0>        -0.1155
     21 C16         1.0224   10.1620    3.5441 C.ar      1 <0>         0.0103
     22 Cl2        -0.1605   12.2812    4.6763 Cl        1 <0>        -0.0569
     23 Br2         3.6574   12.8817    0.7499 Br        1 <0>        -0.0197
     24 O2          3.5376    9.8605    0.9947 O.3       1 <0>        -0.5144
     25 H1         -0.9767    1.9040    0.0649 H         1 <0>         0.1746
     26 H2          1.1941   -1.7663   -0.0075 H         1 <0>         0.1721
     27 H3          3.9181    2.2704    0.8263 H         1 <0>         0.4158
     28 H4          0.2169    4.0945   -0.0504 H         1 <0>         0.2192
     29 H5          2.8567    6.1142   -0.5764 H         1 <0>         0.1390
     30 H6          1.2238    6.0375    0.1279 H         1 <0>         0.1321
     31 H7          2.2091    5.6508    2.3703 H         1 <0>         0.1082
     32 H8          3.8420    5.7276    1.6660 H         1 <0>         0.1066
     33 H9          1.4693    7.5336    3.3218 H         1 <0>         0.1722
     34 H10         1.6362   13.3870    2.7947 H         1 <0>         0.1438
     35 H11         0.3996    9.5693    4.1976 H         1 <0>         0.1421
     36 H12         3.1123    3.7430    0.0831 H         1 <0>         0.4319
     37 H13         3.3503    8.0877    1.1084 H         1 <0>         0.4351
@<TRIPOS>BOND
     1    1    6 ar
     2    1    2 ar
     3    1   25 1
     4    2    3 ar
     5    2   10 1
     6    3    4 ar
     7    3    9 1
     8    4    5 ar
     9    4    8 1
    10    5    6 ar
    11    5   26 1
    12    6    7 1
    13    9   27 1
    14   10   11 2
    15   10   28 1
    16   11   12 1
    17   11   36 1
    18   12   13 1
    19   12   29 1
    20   12   30 1
    21   13   14 1
    22   13   31 1
    23   13   32 1
    24   14   15 2
    25   14   37 1
    26   15   16 1
    27   15   33 1
    28   16   21 ar
    29   16   17 ar
    30   17   18 ar
    31   17   24 1
    32   18   19 ar
    33   18   23 1
    34   19   20 ar
    35   19   34 1
    36   20   21 ar
    37   20   22 1
    38   21   35 1
@<TRIPOS>MOLECULE
ZINC12452103
   75    78     0     0     0
SMALL
USER_CHARGES
N-[2-(1-cyclohexenyl)ethyl]-N-[[2-(4-hydroxy-1-piperidyl)-7-methylsulfanyl-3-quinolyl]methyl]pent-4-enamide
@<TRIPOS>ATOM
      1 C1         -1.5735   -4.6032   -2.5577 C.3       1 <0>        -0.1636
      2 S1         -1.4170   -4.0895   -0.8250 S.3       1 <0>        -0.0350
      3 C2         -0.7461   -2.4631   -0.9216 C.ar      1 <0>        -0.0092
      4 C3         -0.4753   -1.8984   -2.1744 C.ar      1 <0>        -0.1261
      5 C4          0.0411   -0.6448   -2.2753 C.ar      1 <0>        -0.0268
      6 C5          0.3103    0.0972   -1.1135 C.ar      1 <0>        -0.0997
      7 C6          0.8464    1.3982   -1.1886 C.ar      1 <0>         0.0658
      8 C7          1.0848    2.0679   -0.0258 C.ar      1 <0>        -0.1448
      9 C8          0.7958    1.4590    1.2032 C.ar      1 <0>         0.4328
     10 C9          0.0404   -0.4639    0.1593 C.ar      1 <0>         0.1820
     11 C10        -0.4934   -1.7592    0.2374 C.ar      1 <0>        -0.1504
     12 N1          1.0439    2.1531    2.3781 N.pl3     1 <0>        -0.4997
     13 C11        -0.1522    2.8798    2.8225 C.3       1 <0>         0.0557
     14 C12         0.1968    3.7464    4.0346 C.3       1 <0>        -0.1551
     15 C13         0.7215    2.8521    5.1613 C.3       1 <0>         0.1009
     16 C14         1.9378    2.0702    4.6572 C.3       1 <0>        -0.1117
     17 C15         1.5382    1.2522    3.4271 C.3       1 <0>         0.0384
     18 O1          1.1025    3.6616    6.2755 O.3       1 <0>        -0.5573
     19 C16         1.6580    3.4611   -0.0614 C.3       1 <0>         0.1646
     20 N2          2.0219    3.8045   -1.4383 N.am      1 <0>        -0.6224
     21 C17         3.3931    3.5923   -1.9082 C.3       1 <0>         0.1137
     22 C18         3.5088    2.1999   -2.5317 C.3       1 <0>        -0.1035
     23 C19         4.9242    1.9740   -2.9973 C.2       1 <0>        -0.1218
     24 C20         5.7285    1.3373   -2.2079 C.2       1 <0>        -0.1433
     25 C21         7.1653    1.0458   -2.5283 C.3       1 <0>        -0.0930
     26 C22         7.4150    1.2122   -4.0288 C.3       1 <0>        -0.1227
     27 C23         6.8374    2.5630   -4.4699 C.3       1 <0>        -0.1217
     28 C24         5.3117    2.4960   -4.3499 C.3       1 <0>        -0.0839
     29 C25         1.0951    4.3156   -2.2728 C.2       1 <0>         0.5062
     30 O2          1.3964    4.5998   -3.4127 O.2       1 <0>        -0.5056
     31 C26        -0.3155    4.5339   -1.7894 C.3       1 <0>        -0.1387
     32 C27        -1.1587    5.1188   -2.9243 C.3       1 <0>        -0.0803
     33 C28        -2.5693    5.3372   -2.4409 C.2       1 <0>        -0.1714
     34 C29        -3.1206    6.5211   -2.5425 C.2       1 <0>        -0.1750
     35 H1         -2.2372   -3.9157   -3.0820 H         1 <0>         0.0971
     36 H2         -0.5913   -4.5915   -3.0303 H         1 <0>         0.0971
     37 H3         -1.9860   -5.6112   -2.6020 H         1 <0>         0.1269
     38 H4         -0.6798   -2.4652   -3.0707 H         1 <0>         0.1529
     39 H5          0.2455   -0.2208   -3.2473 H         1 <0>         0.1628
     40 H6          1.0670    1.8516   -2.1437 H         1 <0>         0.1757
     41 H7         -0.7056   -2.2022    1.1992 H         1 <0>         0.1564
     42 H8         -0.5127    3.5152    2.0135 H         1 <0>         0.1032
     43 H9         -0.9292    2.1666    3.0977 H         1 <0>         0.0620
     44 H10        -0.6948    4.2737    4.3739 H         1 <0>         0.0921
     45 H11         0.9640    4.4691    3.7565 H         1 <0>         0.0957
     46 H12        -0.0584    2.1548    5.4673 H         1 <0>         0.0571
     47 H13         2.2900    1.3999    5.4413 H         1 <0>         0.0954
     48 H14         2.7323    2.7665    4.3889 H         1 <0>         0.0950
     49 H15         0.7533    0.5466    3.6994 H         1 <0>         0.0525
     50 H16         2.4057    0.7055    3.0572 H         1 <0>         0.1050
     51 H17         0.3794    4.1855    6.6465 H         1 <0>         0.3879
     52 H18         0.9148    4.1692    0.3054 H         1 <0>         0.1100
     53 H19         2.5449    3.5054    0.5706 H         1 <0>         0.1215
     54 H20         3.6423    4.3465   -2.6546 H         1 <0>         0.0966
     55 H21         4.0819    3.6720   -1.0671 H         1 <0>         0.0862
     56 H22         3.2459    1.4463   -1.7894 H         1 <0>         0.0596
     57 H23         2.8304    2.1249   -3.3816 H         1 <0>         0.0743
     58 H24         5.3414    0.9942   -1.2598 H         1 <0>         0.0967
     59 H25         7.8054    1.7345   -1.9770 H         1 <0>         0.0757
     60 H26         7.4001    0.0222   -2.2363 H         1 <0>         0.0710
     61 H27         8.4866    1.1897   -4.2267 H         1 <0>         0.0676
     62 H28         6.9218    0.4073   -4.5738 H         1 <0>         0.0635
     63 H29         7.2245    3.3542   -3.8279 H         1 <0>         0.0655
     64 H30         7.1173    2.7609   -5.5046 H         1 <0>         0.0683
     65 H31         4.9141    1.8347   -5.1198 H         1 <0>         0.0733
     66 H32         4.8963    3.4947   -4.4844 H         1 <0>         0.0738
     67 H33        -0.7424    3.5823   -1.4728 H         1 <0>         0.0853
     68 H34        -0.3081    5.2268   -0.9480 H         1 <0>         0.1003
     69 H35        -0.7317    6.0704   -3.2409 H         1 <0>         0.0798
     70 H36        -1.1661    4.4260   -3.7657 H         1 <0>         0.0803
     71 H37        -3.1256    4.5175   -2.0107 H         1 <0>         0.1065
     72 H38        -4.1315    6.6776   -2.1961 H         1 <0>         0.1008
     73 H39        -2.5642    7.3408   -2.9727 H         1 <0>         0.1003
     74 N3          0.2802    0.2113    1.3368 N.ar      1 <0>        -0.5328
     75 H40         0.0816   -0.2029    2.2550 H         1 <0>         0.4636
@<TRIPOS>BOND
     1    1    2 1
     2    1   35 1
     3    1   36 1
     4    1   37 1
     5    2    3 1
     6    3   11 ar
     7    3    4 ar
     8    4    5 ar
     9    4   38 1
    10    5    6 ar
    11    5   39 1
    12    6   10 ar
    13    6    7 ar
    14    7    8 ar
    15    7   40 1
    16    8    9 ar
    17    8   19 1
    18    9   12 1
    19    9   74 ar
    20   10   11 ar
    21   10   74 ar
    22   11   41 1
    23   12   17 1
    24   12   13 1
    25   13   14 1
    26   13   42 1
    27   13   43 1
    28   14   15 1
    29   14   44 1
    30   14   45 1
    31   15   16 1
    32   15   18 1
    33   15   46 1
    34   16   17 1
    35   16   47 1
    36   16   48 1
    37   17   49 1
    38   17   50 1
    39   18   51 1
    40   19   20 1
    41   19   52 1
    42   19   53 1
    43   20   21 1
    44   20   29 am
    45   21   22 1
    46   21   54 1
    47   21   55 1
    48   22   23 1
    49   22   56 1
    50   22   57 1
    51   23   28 1
    52   23   24 2
    53   24   25 1
    54   24   58 1
    55   25   26 1
    56   25   59 1
    57   25   60 1
    58   26   27 1
    59   26   61 1
    60   26   62 1
    61   27   28 1
    62   27   63 1
    63   27   64 1
    64   28   65 1
    65   28   66 1
    66   29   30 2
    67   29   31 1
    68   31   32 1
    69   31   67 1
    70   31   68 1
    71   32   33 1
    72   32   69 1
    73   32   70 1
    74   33   34 2
    75   33   71 1
    76   34   72 1
    77   34   73 1
    78   74   75 1
@<TRIPOS>MOLECULE
ZINC20927381
   44    46     0     0     0
SMALL
USER_CHARGES
N-[(3,5-dibromo-4-methoxy-phenyl)methyl]-2-(1-phenyltetrazol-5-yl)sulfanyl-ethanamine
@<TRIPOS>ATOM
      1 C1         -2.9999    4.1267   -1.2232 C.3       1 <0>         0.0291
      2 O1         -2.4226    3.8031    0.0433 O.3       1 <0>        -0.3176
      3 C2         -1.2374    3.1376    0.0293 C.ar      1 <0>         0.1900
      4 C3         -1.2194    1.7500    0.0173 C.ar      1 <0>        -0.1164
      5 C4         -0.0126    1.0758    0.0080 C.ar      1 <0>        -0.0387
      6 C5          1.1756    1.7827    0.0004 C.ar      1 <0>        -0.1630
      7 C6          1.1606    3.1652    0.0075 C.ar      1 <0>        -0.0388
      8 C7         -0.0432    3.8446    0.0217 C.ar      1 <0>        -0.1162
      9 Br1        -0.0627    5.7354    0.0315 Br        1 <0>         0.0071
     10 C8          2.4896    1.0449   -0.0161 C.3       1 <0>         0.0559
     11 N1          2.9033    0.8126   -1.4064 N.4       1 <0>        -0.5377
     12 C9          4.1833    0.0939   -1.4616 C.3       1 <0>         0.0106
     13 C10         4.5803   -0.1290   -2.9223 C.3       1 <0>        -0.1817
     14 S1          6.1574   -1.0146   -2.9904 S.3       1 <0>         0.1057
     15 C11         6.3671   -1.1323   -4.7359 C.2       1 <0>         0.1959
     16 N2          5.5466   -0.6711   -5.6552 N.2       1 <0>        -0.3267
     17 N3          5.9988   -0.9246   -6.8300 N.2       1 <0>        -0.0191
     18 N4          7.1206   -1.5548   -6.7536 N.2       1 <0>        -0.0500
     19 N5          7.4082   -1.7106   -5.3862 N.pl3     1 <0>        -0.2999
     20 C12         8.5288   -2.3321   -4.8169 C.ar      1 <0>         0.1045
     21 C13         9.0734   -1.8398   -3.6386 C.ar      1 <0>        -0.1150
     22 C14        10.1741   -2.4573   -3.0773 C.ar      1 <0>        -0.0942
     23 C15        10.7402   -3.5581   -3.6937 C.ar      1 <0>        -0.0937
     24 C16        10.2032   -4.0474   -4.8702 C.ar      1 <0>        -0.0952
     25 C17         9.0994   -3.4373   -5.4335 C.ar      1 <0>        -0.0873
     26 Br2        -2.8440    0.7824    0.0197 Br        1 <0>         0.0071
     27 H1         -3.9494    4.6599   -1.0678 H         1 <0>         0.1164
     28 H2         -3.1871    3.2015   -1.7880 H         1 <0>         0.0581
     29 H3         -2.3076    4.7678   -1.7887 H         1 <0>         0.0581
     30 H4          0.0021   -0.0041    0.0020 H         1 <0>         0.1533
     31 H5          2.0903    3.7148    0.0016 H         1 <0>         0.1533
     32 H6          3.2540    1.6458    0.4984 H         1 <0>         0.1448
     33 H7          2.3746    0.0795    0.4984 H         1 <0>         0.1447
     34 H8          2.1389    0.2117   -1.9209 H         1 <0>         0.4541
     35 H9          4.9595    0.6881   -0.9572 H         1 <0>         0.1437
     36 H10         4.0801   -0.8782   -0.9572 H         1 <0>         0.1437
     37 H11         3.8040   -0.7231   -3.4267 H         1 <0>         0.1272
     38 H12         4.6835    0.8431   -3.4267 H         1 <0>         0.1275
     39 H13         8.6344   -0.9774   -3.1590 H         1 <0>         0.1353
     40 H14        10.5955   -2.0776   -2.1583 H         1 <0>         0.1439
     41 H15        11.6033   -4.0368   -3.2552 H         1 <0>         0.1415
     42 H16        10.6475   -4.9073   -5.3494 H         1 <0>         0.1448
     43 H17         8.6804   -3.8200   -6.3524 H         1 <0>         0.1409
     44 H18         3.0183    1.7780   -1.9209 H         1 <0>         0.4540
@<TRIPOS>BOND
     1    1    2 1
     2    1   27 1
     3    1   28 1
     4    1   29 1
     5    2    3 1
     6    3    8 ar
     7    3    4 ar
     8    4    5 ar
     9    4   26 1
    10    5    6 ar
    11    5   30 1
    12    6    7 ar
    13    6   10 1
    14    7    8 ar
    15    7   31 1
    16    8    9 1
    17   10   11 1
    18   10   32 1
    19   10   33 1
    20   11   12 1
    21   11   34 1
    22   11   44 1
    23   12   13 1
    24   12   35 1
    25   12   36 1
    26   13   14 1
    27   13   37 1
    28   13   38 1
    29   14   15 1
    30   15   19 1
    31   15   16 2
    32   16   17 1
    33   17   18 2
    34   18   19 1
    35   19   20 1
    36   20   25 ar
    37   20   21 ar
    38   21   22 ar
    39   21   39 1
    40   22   23 ar
    41   22   40 1
    42   23   24 ar
    43   23   41 1
    44   24   25 ar
    45   24   42 1
    46   25   43 1
@<TRIPOS>MOLECULE
ZINC36312871
   64    67     0     0     0
SMALL
USER_CHARGES

@<TRIPOS>ATOM
      1 C1          1.9704    0.2369    1.2412 C.3       1 <0>        -0.1538
      2 C2          1.3564   -1.1641    1.2074 C.3       1 <0>        -0.1428
      3 C3         -0.0467   -1.0916    0.6016 C.3       1 <0>         0.1014
      4 N1         -0.6346   -2.4331    0.5693 N.am      1 <0>        -0.6116
      5 C4         -1.4179   -2.9172    1.7087 C.3       1 <0>         0.2038
      6 C5         -2.8354   -2.4192    1.5917 C.2       1 <0>        -0.2553
      7 C6         -3.3627   -1.2652    2.2083 C.2       1 <0>         0.1676
      8 N2         -4.6270   -1.1664    1.8676 N.2       1 <0>        -0.2841
      9 O1         -4.9392   -2.2585    1.0222 O.3       1 <0>        -0.0929
     10 C7         -3.8277   -2.9985    0.8700 C.2       1 <0>         0.3295
     11 N3         -3.7157   -4.1503    0.1126 N.pl3     1 <0>        -0.6190
     12 C8         -3.5781   -5.4670    0.7541 C.3       1 <0>         0.1215
     13 C9         -4.6117   -6.4168    0.1400 C.3       1 <0>        -0.0240
     14 N4         -4.4527   -6.4342   -1.3196 N.4       1 <0>        -0.3818
     15 C10        -4.7576   -5.1082   -1.8717 C.3       1 <0>        -0.0238
     16 C11        -3.7368   -4.0941   -1.3572 C.3       1 <0>         0.1163
     17 C12        -5.3687   -7.4261   -1.8984 C.3       1 <0>        -0.0468
     18 C13        -2.6198   -0.3283    3.0878 C.ar      1 <0>        -0.0609
     19 C14        -1.7573   -0.8222    4.0643 C.ar      1 <0>        -0.0609
     20 C15        -1.0683    0.0521    4.8794 C.ar      1 <0>        -0.1501
     21 C16        -1.2334    1.4195    4.7282 C.ar      1 <0>         0.1273
     22 C17        -2.0904    1.9147    3.7587 C.ar      1 <0>        -0.1501
     23 C18        -2.7785    1.0475    2.9353 C.ar      1 <0>        -0.0528
     24 F1         -0.5572    2.2722    5.5287 F         1 <0>        -0.1280
     25 C19        -0.4548   -3.2218   -0.5087 C.2       1 <0>         0.7156
     26 O2         -0.9695   -4.3226   -0.5492 O.2       1 <0>        -0.5795
     27 N5          0.2955   -2.7904   -1.5418 N.am      1 <0>        -0.6851
     28 C20         0.3929   -3.5611   -2.7058 C.ar      1 <0>         0.1732
     29 C21         0.4582   -2.9415   -3.9472 C.ar      1 <0>        -0.1409
     30 C22         0.5547   -3.7042   -5.0944 C.ar      1 <0>        -0.0825
     31 C23         0.5861   -5.0840   -5.0088 C.ar      1 <0>        -0.1245
     32 C24         0.5208   -5.7049   -3.7738 C.ar      1 <0>        -0.0220
     33 C25         0.4303   -4.9463   -2.6216 C.ar      1 <0>        -0.1160
     34 Cl1         0.5599   -7.4374   -3.6708 Cl        1 <0>        -0.0648
     35 H1          2.9699    0.1852    1.6728 H         1 <0>         0.0641
     36 H2          2.0326    0.6308    0.2268 H         1 <0>         0.0571
     37 H3          1.3460    0.8927    1.8480 H         1 <0>         0.0586
     38 H4          1.9807   -1.8199    0.6006 H         1 <0>         0.0647
     39 H5          1.2942   -1.5581    2.2218 H         1 <0>         0.0714
     40 H6         -0.6710   -0.4358    1.2084 H         1 <0>         0.0879
     41 H7          0.0155   -0.6976   -0.4128 H         1 <0>         0.0745
     42 H8         -1.4150   -4.0072    1.7147 H         1 <0>         0.1010
     43 H9         -0.9782   -2.5477    2.6351 H         1 <0>         0.0932
     44 H10        -2.5747   -5.8558    0.5807 H         1 <0>         0.1069
     45 H11        -3.7577   -5.3732    1.8251 H         1 <0>         0.1156
     46 H12        -4.4610   -7.4219    0.5340 H         1 <0>         0.1420
     47 H13        -5.6152   -6.0741    0.3922 H         1 <0>         0.1304
     48 H14        -4.7143   -5.1489   -2.9601 H         1 <0>         0.1396
     49 H15        -5.7567   -4.8051   -1.5587 H         1 <0>         0.1302
     50 H16        -4.0213   -3.0930   -1.6814 H         1 <0>         0.1091
     51 H17        -2.7497   -4.3420   -1.7475 H         1 <0>         0.1107
     52 H18        -6.3960   -7.1620   -1.6473 H         1 <0>         0.1210
     53 H19        -5.2516   -7.4400   -2.9820 H         1 <0>         0.1245
     54 H20        -5.1382   -8.4122   -1.4954 H         1 <0>         0.1250
     55 H21        -1.6286   -1.8879    4.1832 H         1 <0>         0.1392
     56 H22        -0.3996   -0.3299    5.6366 H         1 <0>         0.1472
     57 H23        -2.2166    2.9812    3.6444 H         1 <0>         0.1470
     58 H24        -3.4430    1.4344    2.1769 H         1 <0>         0.1387
     59 H25         0.7681   -1.9456   -1.4785 H         1 <0>         0.4119
     60 H26         0.4330   -1.8639   -4.0152 H         1 <0>         0.1318
     61 H27         0.6055   -3.2225   -6.0596 H         1 <0>         0.1393
     62 H28         0.6613   -5.6782   -5.9075 H         1 <0>         0.1361
     63 H29         0.3842   -5.4308   -1.6575 H         1 <0>         0.1509
     64 H30        -3.5024   -6.6828   -1.5502 H         1 <0>         0.4282
@<TRIPOS>BOND
     1    1    2 1
     2    1   35 1
     3    1   36 1
     4    1   37 1
     5    2    3 1
     6    2   38 1
     7    2   39 1
     8    3    4 1
     9    3   40 1
    10    3   41 1
    11    4    5 1
    12    4   25 am
    13    5    6 1
    14    5   42 1
    15    5   43 1
    16    6   10 2
    17    6    7 1
    18    7    8 2
    19    7   18 1
    20    8    9 1
    21    9   10 1
    22   10   11 1
    23   11   16 1
    24   11   12 1
    25   12   13 1
    26   12   44 1
    27   12   45 1
    28   13   14 1
    29   13   46 1
    30   13   47 1
    31   14   15 1
    32   14   17 1
    33   14   64 1
    34   15   16 1
    35   15   48 1
    36   15   49 1
    37   16   50 1
    38   16   51 1
    39   17   52 1
    40   17   53 1
    41   17   54 1
    42   18   23 ar
    43   18   19 ar
    44   19   20 ar
    45   19   55 1
    46   20   21 ar
    47   20   56 1
    48   21   22 ar
    49   21   24 1
    50   22   23 ar
    51   22   57 1
    52   23   58 1
    53   25   26 2
    54   25   27 am
    55   27   28 1
    56   27   59 1
    57   28   33 ar
    58   28   29 ar
    59   29   30 ar
    60   29   60 1
    61   30   31 ar
    62   30   61 1
    63   31   32 ar
    64   31   62 1
    65   32   33 ar
    66   32   34 1
    67   33   63 1
@<TRIPOS>MOLECULE
ZINC24093209
   66    68     0     0     0
SMALL
USER_CHARGES

@<TRIPOS>ATOM
      1 C1          0.9844    1.7643    0.2309 C.3       1 <0>        -0.1787
      2 C2          0.9870    0.2344    0.2460 C.3       1 <0>         0.1313
      3 H1         -0.0347   -0.1297    0.3542 H         1 <0>         0.1500
      4 C3          1.5693   -0.2797   -1.0454 C.2       1 <0>         0.1188
      5 N1          2.8300   -0.2873   -1.3753 N.2       1 <0>        -0.2486
      6 N2          2.9780   -0.7957   -2.5463 N.2       1 <0>        -0.2784
      7 C4          1.8096   -1.1441   -3.0336 C.2       1 <0>         0.1834
      8 N3          0.8724   -0.8310   -2.0877 N.pl3     1 <0>        -0.3960
      9 C5         -0.5139   -1.0299   -2.1695 C.ar      1 <0>         0.0799
     10 C6         -1.1425   -1.9094   -1.2988 C.ar      1 <0>        -0.0956
     11 C7         -2.5076   -2.1033   -1.3809 C.ar      1 <0>        -0.0928
     12 C8         -3.2484   -1.4219   -2.3306 C.ar      1 <0>        -0.0108
     13 C9         -2.6239   -0.5447   -3.1997 C.ar      1 <0>        -0.0864
     14 C10        -1.2599   -0.3433   -3.1176 C.ar      1 <0>        -0.0763
     15 Cl1        -4.9638   -1.6685   -2.4322 Cl        1 <0>        -0.0324
     16 S1          1.5071   -1.8820   -4.6048 S.3       1 <0>         0.1182
     17 C11         3.1567   -2.0309   -5.3446 C.3       1 <0>        -0.1555
     18 C12         3.0400   -2.6563   -6.7107 C.2       1 <0>         0.5365
     19 O1          1.9512   -2.9706   -7.1427 O.2       1 <0>        -0.5170
     20 N4          4.1456   -2.8663   -7.4524 N.am      1 <0>        -0.7133
     21 C13         4.0468   -3.5774   -8.7294 C.3       1 <0>         0.1863
     22 H2          3.2436   -4.3122   -8.6749 H         1 <0>         0.1047
     23 C14         3.7480   -2.5774   -9.8482 C.3       1 <0>        -0.1200
     24 C15         3.5443   -3.3304  -11.1644 C.3       1 <0>        -0.0951
     25 C16         2.2790   -4.1857  -11.0721 C.3       1 <0>        -0.1504
     26 C17         3.3986   -2.3261  -12.3093 C.3       1 <0>        -0.1475
     27 C18         5.3498   -4.2778   -9.0165 C.ar      1 <0>        -0.0946
     28 C19         6.5486   -3.6542   -8.7250 C.ar      1 <0>        -0.1168
     29 C20         7.7439   -4.2967   -8.9883 C.ar      1 <0>        -0.1140
     30 C21         7.7404   -5.5630   -9.5427 C.ar      1 <0>        -0.1146
     31 C22         6.5417   -6.1869   -9.8335 C.ar      1 <0>        -0.1128
     32 C23         5.3463   -5.5462   -9.5662 C.ar      1 <0>        -0.1049
     33 N5          1.7988   -0.2428    1.3734 N.4       1 <0>        -0.3815
     34 C24         1.2312    0.2583    2.6322 C.3       1 <0>        -0.0523
     35 C25         1.8014   -1.7118    1.3879 C.3       1 <0>        -0.0502
     36 H3          2.0060    2.1283    0.1227 H         1 <0>         0.0944
     37 H4          0.3820    2.1184   -0.6057 H         1 <0>         0.1068
     38 H5          0.5632    2.1361    1.1649 H         1 <0>         0.0994
     39 H6         -0.5646   -2.4419   -0.5580 H         1 <0>         0.1365
     40 H7         -2.9971   -2.7875   -0.7037 H         1 <0>         0.1535
     41 H8         -3.2041   -0.0140   -3.9401 H         1 <0>         0.1559
     42 H9         -0.7735    0.3446   -3.7933 H         1 <0>         0.1472
     43 H10         3.6050   -1.0415   -5.4350 H         1 <0>         0.1310
     44 H11         3.7840   -2.6574   -4.7106 H         1 <0>         0.1311
     45 H12         5.0067   -2.5466   -7.1406 H         1 <0>         0.4042
     46 H13         2.8436   -2.0196   -9.6050 H         1 <0>         0.0733
     47 H14         4.5846   -1.8862   -9.9507 H         1 <0>         0.0674
     48 H15         4.4044   -3.9731  -11.3521 H         1 <0>         0.0755
     49 H16         1.4108   -3.5380  -10.9506 H         1 <0>         0.0566
     50 H17         2.1698   -4.7725  -11.9841 H         1 <0>         0.0566
     51 H18         2.3551   -4.8558  -10.2158 H         1 <0>         0.0539
     52 H19         4.3000   -1.7168  -12.3751 H         1 <0>         0.0539
     53 H20         3.2535   -2.8626  -13.2470 H         1 <0>         0.0577
     54 H21         2.5385   -1.6834  -12.1216 H         1 <0>         0.0544
     55 H22         6.5513   -2.6649   -8.2918 H         1 <0>         0.1181
     56 H23         8.6805   -3.8092   -8.7612 H         1 <0>         0.1249
     57 H24         8.6743   -6.0647   -9.7491 H         1 <0>         0.1252
     58 H25         6.5389   -7.1761  -10.2669 H         1 <0>         0.1266
     59 H26         4.4097   -6.0352   -9.7898 H         1 <0>         0.1248
     60 H27         1.8336   -0.0958    3.4688 H         1 <0>         0.1333
     61 H28         1.2293    1.3482    2.6215 H         1 <0>         0.1305
     62 H29         0.2095   -0.1058    2.7404 H         1 <0>         0.1252
     63 H30         2.2226   -2.0836    0.4538 H         1 <0>         0.1164
     64 H31         2.4038   -2.0658    2.2244 H         1 <0>         0.1348
     65 H32         0.7797   -2.0758    1.4961 H         1 <0>         0.1217
     66 H33         2.7446    0.0942    1.2733 H         1 <0>         0.4364
@<TRIPOS>BOND
     1    1    2 1
     2    1   36 1
     3    1   37 1
     4    1   38 1
     5    2    3 1
     6    2    4 1
     7    2   33 1
     8    4    8 1
     9    4    5 2
    10    5    6 1
    11    6    7 2
    12    7    8 1
    13    7   16 1
    14    8    9 1
    15    9   14 ar
    16    9   10 ar
    17   10   11 ar
    18   10   39 1
    19   11   12 ar
    20   11   40 1
    21   12   13 ar
    22   12   15 1
    23   13   14 ar
    24   13   41 1
    25   14   42 1
    26   16   17 1
    27   17   18 1
    28   17   43 1
    29   17   44 1
    30   18   19 2
    31   18   20 am
    32   20   21 1
    33   20   45 1
    34   21   22 1
    35   21   23 1
    36   21   27 1
    37   23   24 1
    38   23   46 1
    39   23   47 1
    40   24   25 1
    41   24   26 1
    42   24   48 1
    43   25   49 1
    44   25   50 1
    45   25   51 1
    46   26   52 1
    47   26   53 1
    48   26   54 1
    49   27   32 ar
    50   27   28 ar
    51   28   29 ar
    52   28   55 1
    53   29   30 ar
    54   29   56 1
    55   30   31 ar
    56   30   57 1
    57   31   32 ar
    58   31   58 1
    59   32   59 1
    60   33   34 1
    61   33   35 1
    62   33   66 1
    63   34   60 1
    64   34   61 1
    65   34   62 1
    66   35   63 1
    67   35   64 1
    68   35   65 1
@<TRIPOS>MOLECULE
ZINC63491047
   56    59     0     0     0
SMALL
USER_CHARGES

@<TRIPOS>ATOM
      1 C1         -0.1047    1.5225   -0.0345 C.3       1 <0>        -0.1544
      2 C2         -0.0374   -0.0059   -0.0186 C.3       1 <0>        -0.0426
      3 H1         -1.0485   -0.4128   -0.0015 H         1 <0>         0.1156
      4 C3          0.6762   -0.4890   -1.2560 C.ar      1 <0>        -0.1356
      5 C4         -0.0353   -0.5546   -2.4445 C.ar      1 <0>        -0.0544
      6 C5          0.5778   -0.9846   -3.6042 C.ar      1 <0>        -0.0599
      7 C6          1.9167   -1.3533   -3.5846 C.ar      1 <0>         0.1337
      8 C7          2.6295   -1.2910   -2.3995 C.ar      1 <0>        -0.1202
      9 C8          2.0085   -0.8619   -1.2317 C.ar      1 <0>         0.1439
     10 O1          2.7406   -0.8349   -0.0844 O.3       1 <0>        -0.2948
     11 C9          2.1942   -0.2304    0.9893 C.2       1 <0>         0.4932
     12 O2          2.8506    0.4693    1.7238 O.2       1 <0>        -0.4030
     13 C10         0.7188   -0.4691    1.2303 C.3       1 <0>        -0.1154
     14 H2          0.3894    0.1050    2.0963 H         1 <0>         0.1339
     15 C11         0.4660   -1.9594    1.4674 C.3       1 <0>        -0.1368
     16 C12         1.1119   -2.3786    2.7628 C.2       1 <0>         0.5112
     17 O3          1.7149   -1.5655    3.4307 O.2       1 <0>        -0.5136
     18 N1          1.0193   -3.6571    3.1792 N.am      1 <0>        -0.7349
     19 C13         1.6471   -4.0646    4.4385 C.3       1 <0>         0.1248
     20 C14         1.3944   -5.5549    4.6756 C.3       1 <0>        -0.1075
     21 C15         2.0402   -5.9741    5.9710 C.2       1 <0>         0.0805
     22 C16         1.4496   -6.0555    7.1850 C.ar      1 <0>        -0.1621
     23 C17         0.0818   -5.7877    7.6450 C.ar      1 <0>        -0.0072
     24 C18        -0.2168   -5.9627    8.9534 C.ar      1 <0>        -0.0743
     25 C19         0.7466   -6.3923    9.8782 C.ar      1 <0>         0.0531
     26 C20         2.0233   -6.6580    9.5304 C.ar      1 <0>        -0.1879
     27 C21         2.4471   -6.5082    8.1809 C.ar      1 <0>         0.3295
     28 N2          3.6091   -6.6992    7.6049 N.pl3     1 <0>        -0.5765
     29 C22         3.4783   -6.3951    6.1756 C.3       1 <0>         0.0588
     30 Cl1        -1.8334   -5.6470    9.5014 Cl        1 <0>        -0.0129
     31 O4          2.5252   -1.7735   -4.7253 O.3       1 <0>        -0.2909
     32 C23         2.9685   -0.8409   -5.5835 C.2       1 <0>         0.4609
     33 O5          2.9114    0.3290   -5.2868 O.2       1 <0>        -0.4846
     34 C24         3.5372   -1.2534   -6.9167 C.3       1 <0>        -0.1437
     35 Cl2        -0.3240   -1.0648   -5.0854 Cl        1 <0>        -0.0383
     36 H3          0.9060    1.9305   -0.0516 H         1 <0>         0.0583
     37 H4         -0.6450    1.8532   -0.9215 H         1 <0>         0.0752
     38 H5         -0.6228    1.8727    0.8583 H         1 <0>         0.0758
     39 H6         -1.0764   -0.2678   -2.4628 H         1 <0>         0.1543
     40 H7          3.6708   -1.5768   -2.3819 H         1 <0>         0.1559
     41 H8         -0.6073   -2.1419    1.5207 H         1 <0>         0.1223
     42 H9          0.8921   -2.5353    0.6459 H         1 <0>         0.1070
     43 H10         0.5370   -4.3074    2.6450 H         1 <0>         0.4079
     44 H11         2.7204   -3.8821    4.3852 H         1 <0>         0.0795
     45 H12         1.2210   -3.4886    5.2600 H         1 <0>         0.0810
     46 H13         0.3211   -5.7374    4.7289 H         1 <0>         0.1184
     47 H14         1.8205   -6.1308    3.8541 H         1 <0>         0.1223
     48 H15        -0.6751   -5.4555    6.9499 H         1 <0>         0.1704
     49 H16         0.4549   -6.5151   10.9108 H         1 <0>         0.1711
     50 H17         2.7272   -6.9860   10.2810 H         1 <0>         0.1715
     51 H18         3.6990   -7.2804    5.5791 H         1 <0>         0.1804
     52 H19         4.1504   -5.5811    5.9039 H         1 <0>         0.1794
     53 H20         2.7376   -1.2924   -7.6564 H         1 <0>         0.1124
     54 H21         4.2881   -0.5286   -7.2313 H         1 <0>         0.1109
     55 H22         3.9973   -2.2374   -6.8267 H         1 <0>         0.0998
     56 H23         4.4190   -6.9958    8.0488 H         1 <0>         0.4588
@<TRIPOS>BOND
     1    1    2 1
     2    1   36 1
     3    1   37 1
     4    1   38 1
     5    2    3 1
     6    2   13 1
     7    2    4 1
     8    4    9 ar
     9    4    5 ar
    10    5    6 ar
    11    5   39 1
    12    6    7 ar
    13    6   35 1
    14    7    8 ar
    15    7   31 1
    16    8    9 ar
    17    8   40 1
    18    9   10 1
    19   10   11 1
    20   11   12 2
    21   11   13 1
    22   13   14 1
    23   13   15 1
    24   15   16 1
    25   15   41 1
    26   15   42 1
    27   16   17 2
    28   16   18 am
    29   18   19 1
    30   18   43 1
    31   19   20 1
    32   19   44 1
    33   19   45 1
    34   20   21 1
    35   20   46 1
    36   20   47 1
    37   21   29 1
    38   21   22 2
    39   22   27 ar
    40   22   23 ar
    41   23   24 ar
    42   23   48 1
    43   24   25 ar
    44   24   30 1
    45   25   26 ar
    46   25   49 1
    47   26   27 ar
    48   26   50 1
    49   27   28 2
    50   28   29 1
    51   28   56 1
    52   29   51 1
    53   29   52 1
    54   31   32 1
    55   32   33 2
    56   32   34 1
    57   34   53 1
    58   34   54 1
    59   34   55 1
@<TRIPOS>MOLECULE
ZINC09481309
   58    62     0     0     0
SMALL
USER_CHARGES
N-(1-benzothiazol-2-ylethyl)-2-(4-benzothiazol-2-yl-1-piperidyl)-N-methyl-acetamide
@<TRIPOS>ATOM
      1 C1          3.3152    1.3246   -0.6331 C.3       1 <0>        -0.1606
      2 C2          2.3771    1.1582    0.5641 C.3       1 <0>         0.2326
      3 H1          2.1643    0.0998    0.7146 H         1 <0>         0.1343
      4 C3          3.0343    1.7190    1.7989 C.2       1 <0>         0.0918
      5 N1          3.2065    2.9687    2.1264 N.2       1 <0>        -0.4859
      6 C4          3.8117    3.3405    3.2736 C.ar      1 <0>         0.0652
      7 C5          4.0660    4.6400    3.7655 C.ar      1 <0>        -0.0542
      8 C6          4.7016    4.8205    4.9547 C.ar      1 <0>        -0.1088
      9 C7          5.1230    3.7458    5.7255 C.ar      1 <0>        -0.0805
     10 C8          4.8933    2.4582    5.2787 C.ar      1 <0>        -0.0694
     11 C9          4.2517    2.2656    4.0793 C.ar      1 <0>        -0.1444
     12 S1          3.7510    0.8557    3.1240 S.3       1 <0>         0.0576
     13 N2          1.1261    1.8763    0.3079 N.am      1 <0>        -0.5772
     14 C10         1.1464    3.3221    0.0724 C.3       1 <0>         0.0650
     15 C11        -0.0434    1.2067    0.2887 C.2       1 <0>         0.5013
     16 O1         -0.0602    0.0098    0.4836 O.2       1 <0>        -0.5269
     17 C12        -1.3296    1.9443    0.0189 C.3       1 <0>        -0.0254
     18 C13        -3.7304    1.6639   -0.1142 C.3       1 <0>         0.0031
     19 C14        -4.8549    0.6261   -0.0939 C.3       1 <0>        -0.1439
     20 C15        -4.7247   -0.2844   -1.3182 C.3       1 <0>        -0.0063
     21 C16        -3.3445   -0.9472   -1.3070 C.3       1 <0>        -0.1402
     22 C17        -2.2638    0.1362   -1.2920 C.3       1 <0>        -0.0033
     23 C18        -5.7935   -1.3458   -1.2740 C.2       1 <0>         0.1080
     24 N3         -6.7343   -1.5825   -2.1443 N.2       1 <0>        -0.4836
     25 C19        -7.6365   -2.5732   -1.9851 C.ar      1 <0>         0.0641
     26 C20        -8.7033   -2.9503   -2.8306 C.ar      1 <0>        -0.0511
     27 C21        -9.5180   -3.9885   -2.4999 C.ar      1 <0>        -0.1083
     28 C22        -9.3359   -4.7129   -1.3300 C.ar      1 <0>        -0.0769
     29 C23        -8.3031   -4.3750   -0.4760 C.ar      1 <0>        -0.0721
     30 C24        -7.4752   -3.3279   -0.8008 C.ar      1 <0>        -0.1375
     31 S2         -6.0633   -2.5525   -0.0551 S.3       1 <0>         0.0293
     32 H2          4.2459    0.7904   -0.4424 H         1 <0>         0.0856
     33 H3          2.8398    0.9190   -1.5262 H         1 <0>         0.0795
     34 H4          3.5280    2.3830   -0.7836 H         1 <0>         0.0755
     35 H5          3.7518    5.4994    3.1918 H         1 <0>         0.1345
     36 H6          4.8831    5.8249    5.3077 H         1 <0>         0.1396
     37 H7          5.6263    3.9143    6.6661 H         1 <0>         0.1447
     38 H8          5.2148    1.6116    5.8671 H         1 <0>         0.1386
     39 H9          1.0400    3.8464    1.0221 H         1 <0>         0.0794
     40 H10         2.0918    3.6012   -0.3928 H         1 <0>         0.0958
     41 H11         0.3225    3.5943   -0.5872 H         1 <0>         0.0736
     42 H12        -1.5350    2.6293    0.8415 H         1 <0>         0.1618
     43 H13        -1.2371    2.5083   -0.9092 H         1 <0>         0.1634
     44 H14        -3.8118    2.3048    0.7637 H         1 <0>         0.1376
     45 H15        -3.8127    2.2710   -1.0157 H         1 <0>         0.1393
     46 H16        -5.8192    1.1337   -0.1189 H         1 <0>         0.1236
     47 H17        -4.7815    0.0276    0.8141 H         1 <0>         0.0964
     48 H18        -4.8370    0.3080   -2.2262 H         1 <0>         0.1240
     49 H19        -3.2296   -1.5636   -2.1986 H         1 <0>         0.1213
     50 H20        -3.2469   -1.5709   -0.4184 H         1 <0>         0.0970
     51 H21        -2.3529    0.7505   -2.1880 H         1 <0>         0.1346
     52 H22        -1.2800   -0.3326   -1.2695 H         1 <0>         0.1435
     53 H23        -8.8739   -2.4090   -3.7495 H         1 <0>         0.1371
     54 H24       -10.3263   -4.2559   -3.1644 H         1 <0>         0.1415
     55 H25        -9.9954   -5.5336   -1.0893 H         1 <0>         0.1461
     56 H26        -8.1485   -4.9288    0.4383 H         1 <0>         0.1392
     57 N4         -2.4294    0.9625   -0.0774 N.4       1 <0>        -0.3856
     58 H27        -2.4039    0.3512    0.7472 H         1 <0>         0.4360
@<TRIPOS>BOND
     1    1    2 1
     2    1   32 1
     3    1   33 1
     4    1   34 1
     5    2    3 1
     6    2    4 1
     7    2   13 1
     8    4   12 1
     9    4    5 2
    10    5    6 1
    11    6   11 ar
    12    6    7 ar
    13    7    8 ar
    14    7   35 1
    15    8    9 ar
    16    8   36 1
    17    9   10 ar
    18    9   37 1
    19   10   11 ar
    20   10   38 1
    21   11   12 1
    22   13   14 1
    23   13   15 am
    24   14   39 1
    25   14   40 1
    26   14   41 1
    27   15   16 2
    28   15   17 1
    29   17   42 1
    30   17   43 1
    31   17   57 1
    32   18   19 1
    33   18   44 1
    34   18   45 1
    35   18   57 1
    36   19   20 1
    37   19   46 1
    38   19   47 1
    39   20   21 1
    40   20   23 1
    41   20   48 1
    42   21   22 1
    43   21   49 1
    44   21   50 1
    45   22   51 1
    46   22   52 1
    47   22   57 1
    48   23   31 1
    49   23   24 2
    50   24   25 1
    51   25   30 ar
    52   25   26 ar
    53   26   27 ar
    54   26   53 1
    55   27   28 ar
    56   27   54 1
    57   28   29 ar
    58   28   55 1
    59   29   30 ar
    60   29   56 1
    61   30   31 1
    62   57   58 1
@<TRIPOS>MOLECULE
ZINC12438668
   69    73     0     0     0
SMALL
USER_CHARGES
3-(2-furyl)-N-[(1-indan-2-yl-4-piperidyl)methyl]-N-[[(2R)-tetrahydrofuran-2-yl]methyl]propanamide
@<TRIPOS>ATOM
      1 C1         -4.7616   -1.3016   -0.7620 C.ar      1 <0>        -0.1044
      2 C2         -6.0372   -0.7704   -0.8077 C.ar      1 <0>        -0.1036
      3 C3         -6.2258    0.5857   -0.6273 C.ar      1 <0>        -0.0972
      4 C4         -5.1404    1.4171   -0.4063 C.ar      1 <0>        -0.1163
      5 C5         -3.8656    0.8853   -0.3553 C.ar      1 <0>        -0.1194
      6 C6         -3.6785   -0.4750   -0.5360 C.ar      1 <0>        -0.0958
      7 C7         -2.8611    1.9879   -0.0978 C.3       1 <0>        -0.0929
      8 C8         -3.6908    3.1725    0.4413 C.3       1 <0>         0.0251
      9 C9         -5.0806    2.9122   -0.1776 C.3       1 <0>        -0.0885
     10 C10        -4.4826    4.3043    2.4294 C.3       1 <0>        -0.0024
     11 C11        -4.4072    4.3122    3.9579 C.3       1 <0>        -0.1361
     12 C12        -5.0237    3.0202    4.5011 C.3       1 <0>        -0.1148
     13 C13        -4.2819    1.8203    3.9056 C.3       1 <0>        -0.1392
     14 C14        -4.3609    1.8846    2.3786 C.3       1 <0>        -0.0033
     15 C15        -4.8966    2.9945    6.0256 C.3       1 <0>         0.1197
     16 N1         -5.6974    4.0781    6.6007 N.am      1 <0>        -0.6069
     17 C16        -7.1242    3.8746    6.8633 C.3       1 <0>         0.1086
     18 C17        -7.3097    3.3353    8.2830 C.3       1 <0>         0.0569
     19 H1         -6.8115    3.9916    8.9966 H         1 <0>         0.0714
     20 C18        -8.8113    3.2426    8.6164 C.3       1 <0>        -0.1524
     21 C19        -9.0338    1.7478    8.9523 C.3       1 <0>        -0.1553
     22 C20        -7.5995    1.2771    9.3039 C.3       1 <0>         0.0451
     23 O1         -6.7653    2.0083    8.3768 O.3       1 <0>        -0.3717
     24 C21        -5.1215    5.2623    6.8881 C.2       1 <0>         0.5176
     25 O2         -3.9403    5.4308    6.6707 O.2       1 <0>        -0.5321
     26 C22        -5.9453    6.3769    7.4797 C.3       1 <0>        -0.1418
     27 C23        -5.0571    7.6016    7.7082 C.3       1 <0>        -0.0199
     28 C24        -5.8808    8.7163    8.2998 C.2       1 <0>        -0.0243
     29 C25        -6.0795    8.9367    9.6118 C.2       1 <0>        -0.2014
     30 C26        -6.9057   10.0794    9.7147 C.2       1 <0>        -0.2126
     31 C27        -7.1693   10.4840    8.4592 C.2       1 <0>        -0.0370
     32 O3         -6.5459    9.6546    7.6064 O.3       1 <0>        -0.1777
     33 H2         -4.6123   -2.3620   -0.9026 H         1 <0>         0.1341
     34 H3         -6.8853   -1.4154   -0.9840 H         1 <0>         0.1338
     35 H4         -7.2226    0.9999   -0.6630 H         1 <0>         0.1270
     36 H5         -2.6824   -0.8907   -0.5004 H         1 <0>         0.1282
     37 H6         -2.1309    1.6682    0.6457 H         1 <0>         0.0947
     38 H7         -2.3606    2.2676   -1.0248 H         1 <0>         0.1223
     39 H8         -3.2831    4.1214    0.0930 H         1 <0>         0.1527
     40 H9         -5.8658    3.2237    0.5114 H         1 <0>         0.0927
     41 H10        -5.1772    3.4405   -1.1261 H         1 <0>         0.1208
     42 H11        -4.0315    5.2166    2.0388 H         1 <0>         0.1285
     43 H12        -5.5257    4.2528    2.1174 H         1 <0>         0.1261
     44 H13        -4.9585    5.1692    4.3450 H         1 <0>         0.1055
     45 H14        -3.3651    4.3777    4.2706 H         1 <0>         0.0949
     46 H15        -6.0762    2.9731    4.2216 H         1 <0>         0.0873
     47 H16        -4.7436    0.8969    4.2552 H         1 <0>         0.1123
     48 H17        -3.2378    1.8466    4.2174 H         1 <0>         0.0901
     49 H18        -5.4046    1.8444    2.0669 H         1 <0>         0.1286
     50 H19        -3.8214    1.0394    1.9512 H         1 <0>         0.1303
     51 H20        -5.2553    2.0374    6.4041 H         1 <0>         0.0957
     52 H21        -3.8515    3.1272    6.3054 H         1 <0>         0.0914
     53 H22        -7.6510    4.8236    6.7634 H         1 <0>         0.0962
     54 H23        -7.5270    3.1584    6.1471 H         1 <0>         0.0896
     55 H24        -9.0503    3.8668    9.4774 H         1 <0>         0.0821
     56 H25        -9.4121    3.5335    7.7546 H         1 <0>         0.0812
     57 H26        -9.7004    1.6364    9.8075 H         1 <0>         0.0846
     58 H27        -9.4199    1.2081    8.0876 H         1 <0>         0.0781
     59 H28        -7.3502    1.5408   10.3317 H         1 <0>         0.0636
     60 H29        -7.4995    0.2027    9.1495 H         1 <0>         0.0956
     61 H30        -6.7519    6.6360    6.7939 H         1 <0>         0.0986
     62 H31        -6.3673    6.0516    8.4306 H         1 <0>         0.1004
     63 H32        -4.2505    7.3425    8.3941 H         1 <0>         0.1016
     64 H33        -4.6350    7.9269    6.7574 H         1 <0>         0.0877
     65 H34        -5.6821    8.3540   10.4297 H         1 <0>         0.1480
     66 H35        -7.2607   10.5370   10.6263 H         1 <0>         0.1505
     67 H36        -7.7785   11.3321    8.1838 H         1 <0>         0.2049
     68 N2         -3.7294    3.1396    1.9179 N.4       1 <0>        -0.3849
     69 H37        -2.7685    3.1805    2.2775 H         1 <0>         0.4277
@<TRIPOS>BOND
     1    1    6 ar
     2    1    2 ar
     3    1   33 1
     4    2    3 ar
     5    2   34 1
     6    3    4 ar
     7    3   35 1
     8    4    9 1
     9    4    5 ar
    10    5    6 ar
    11    5    7 1
    12    6   36 1
    13    7    8 1
    14    7   37 1
    15    7   38 1
    16    8    9 1
    17    8   39 1
    18    8   68 1
    19    9   40 1
    20    9   41 1
    21   10   11 1
    22   10   42 1
    23   10   43 1
    24   10   68 1
    25   11   12 1
    26   11   44 1
    27   11   45 1
    28   12   13 1
    29   12   15 1
    30   12   46 1
    31   13   14 1
    32   13   47 1
    33   13   48 1
    34   14   49 1
    35   14   50 1
    36   14   68 1
    37   15   16 1
    38   15   51 1
    39   15   52 1
    40   16   17 1
    41   16   24 am
    42   17   18 1
    43   17   53 1
    44   17   54 1
    45   18   19 1
    46   18   23 1
    47   18   20 1
    48   20   21 1
    49   20   55 1
    50   20   56 1
    51   21   22 1
    52   21   57 1
    53   21   58 1
    54   22   23 1
    55   22   59 1
    56   22   60 1
    57   24   25 2
    58   24   26 1
    59   26   27 1
    60   26   61 1
    61   26   62 1
    62   27   28 1
    63   27   63 1
    64   27   64 1
    65   28   32 1
    66   28   29 2
    67   29   30 1
    68   29   65 1
    69   30   31 2
    70   30   66 1
    71   31   32 1
    72   31   67 1
    73   68   69 1
@<TRIPOS>MOLECULE
ZINC19210157
   66    69     0     0     0
SMALL
USER_CHARGES
N-[[3-[(3,5-dimethylpyrazol-1-yl)methyl]-4-methoxy-phenyl]methyl]-1-(p-tolyl)-N-(4-pyridylmethyl)methanamine
@<TRIPOS>ATOM
      1 C1          1.7901    9.5768   -3.1981 C.3       1 <0>        -0.1336
      2 C2          1.3403    9.3297   -1.7812 C.ar      1 <0>        -0.0442
      3 C3         -0.0071    9.2161   -1.4936 C.ar      1 <0>        -0.1168
      4 C4         -0.4197    8.9894   -0.1939 C.ar      1 <0>        -0.0885
      5 C5          0.5150    8.8754    0.8181 C.ar      1 <0>        -0.1645
      6 C6          1.8621    8.9937    0.5313 C.ar      1 <0>        -0.0900
      7 C7          2.2750    9.2161   -0.7691 C.ar      1 <0>        -0.1165
      8 C8          0.0652    8.6282    2.2350 C.3       1 <0>         0.0400
      9 N1          0.1159    7.1882    2.5207 N.4       1 <0>        -0.3953
     10 C9          0.0913    6.9374    3.9679 C.3       1 <0>         0.0347
     11 C10         1.3876    7.4017    4.5803 C.ar      1 <0>        -0.1007
     12 C11         2.5063    6.5826    4.5798 C.ar      1 <0>        -0.1497
     13 C12         3.6791    7.0441    5.1470 C.ar      1 <0>         0.1160
     14 N2          3.7384    8.2433    5.6922 N.ar      1 <0>        -0.4586
     15 C13         2.6933    9.0473    5.7148 C.ar      1 <0>         0.1144
     16 C14         1.4883    8.6559    5.1627 C.ar      1 <0>        -0.1526
     17 C15        -0.9784    6.4785    1.8447 C.3       1 <0>         0.0472
     18 C16        -0.7568    4.9920    1.9548 C.ar      1 <0>        -0.1985
     19 C17        -0.0331    4.3280    0.9812 C.ar      1 <0>        -0.0410
     20 C18         0.1759    2.9665    1.0826 C.ar      1 <0>        -0.2036
     21 C19        -0.3499    2.2631    2.1569 C.ar      1 <0>         0.1759
     22 C20        -1.0750    2.9315    3.1324 C.ar      1 <0>        -0.1383
     23 C21        -1.2768    4.2945    3.0291 C.ar      1 <0>        -0.0336
     24 C22        -1.6417    2.1718    4.3040 C.3       1 <0>         0.1770
     25 N3         -0.6201    2.0492    5.3468 N.pl3     1 <0>        -0.3720
     26 C23         0.2701    1.0426    5.4716 C.2       1 <0>         0.1020
     27 C24         1.0374    1.3027    6.5554 C.2       1 <0>        -0.2769
     28 C25         0.5950    2.5046    7.1176 C.2       1 <0>         0.0826
     29 N4         -0.3985    2.9530    6.3939 N.2       1 <0>        -0.3057
     30 C26         1.1640    3.1683    8.3451 C.3       1 <0>        -0.0783
     31 C27         0.3905   -0.1546    4.5644 C.3       1 <0>        -0.1246
     32 O1         -0.1500    0.9226    2.2561 O.3       1 <0>        -0.2942
     33 C28         0.6060    0.3005    1.2152 C.3       1 <0>         0.0080
     34 H1          0.9110    9.6371   -3.8566 H         1 <0>         0.0743
     35 H2          2.4382    8.7508   -3.5264 H         1 <0>         0.0805
     36 H3          2.3494   10.5228   -3.2455 H         1 <0>         0.0819
     37 H4         -0.7373    9.3048   -2.2843 H         1 <0>         0.1352
     38 H5         -1.4724    8.9010    0.0308 H         1 <0>         0.1314
     39 H6          2.5922    8.9091    1.3226 H         1 <0>         0.1273
     40 H7          3.3276    9.3045   -0.9938 H         1 <0>         0.1345
     41 H8          0.7297    9.1634    2.9293 H         1 <0>         0.1357
     42 H9         -0.9656    8.9909    2.3611 H         1 <0>         0.1360
     43 H10        -0.7463    7.4878    4.4212 H         1 <0>         0.1395
     44 H11        -0.0358    5.8603    4.1513 H         1 <0>         0.1445
     45 H12         2.4627    5.5977    4.1389 H         1 <0>         0.1400
     46 H13         4.5559    6.4135    5.1477 H         1 <0>         0.1672
     47 H14         2.7800   10.0226    6.1704 H         1 <0>         0.1686
     48 H15         0.6358    9.3185    5.1850 H         1 <0>         0.1451
     49 H16        -1.9350    6.7427    2.3191 H         1 <0>         0.1353
     50 H17        -1.0030    6.7679    0.7837 H         1 <0>         0.1390
     51 H18         0.3724    4.8752    0.1431 H         1 <0>         0.1354
     52 H19         0.7449    2.4491    0.3243 H         1 <0>         0.1439
     53 H20        -1.8410    4.8154    3.7886 H         1 <0>         0.1398
     54 H21        -2.5120    2.7121    4.7050 H         1 <0>         0.1063
     55 H22        -1.9522    1.1691    3.9752 H         1 <0>         0.1097
     56 H23         1.8457    0.6884    6.9239 H         1 <0>         0.1456
     57 H24         0.6140    4.0993    8.5468 H         1 <0>         0.0696
     58 H25         2.2265    3.3990    8.1780 H         1 <0>         0.0778
     59 H26         1.0669    2.4911    9.2064 H         1 <0>         0.0819
     60 H27         1.2063   -0.8021    4.9182 H         1 <0>         0.0820
     61 H28         0.6076    0.1820    3.5399 H         1 <0>         0.1106
     62 H29        -0.5545   -0.7176    4.5729 H         1 <0>         0.0743
     63 H30         0.6916   -0.7772    1.4181 H         1 <0>         0.1160
     64 H31         1.6105    0.7469    1.1747 H         1 <0>         0.0658
     65 H32         0.0978    0.4530    0.2516 H         1 <0>         0.0679
     66 H33         1.0660    6.7987    2.1263 H         1 <0>         0.4376
@<TRIPOS>BOND
     1    1    2 1
     2    1   34 1
     3    1   35 1
     4    1   36 1
     5    2    7 ar
     6    2    3 ar
     7    3    4 ar
     8    3   37 1
     9    4    5 ar
    10    4   38 1
    11    5    6 ar
    12    5    8 1
    13    6    7 ar
    14    6   39 1
    15    7   40 1
    16    8    9 1
    17    8   41 1
    18    8   42 1
    19    9   10 1
    20    9   17 1
    21    9   66 1
    22   10   11 1
    23   10   43 1
    24   10   44 1
    25   11   16 ar
    26   11   12 ar
    27   12   13 ar
    28   12   45 1
    29   13   14 ar
    30   13   46 1
    31   14   15 ar
    32   15   16 ar
    33   15   47 1
    34   16   48 1
    35   17   18 1
    36   17   49 1
    37   17   50 1
    38   18   23 ar
    39   18   19 ar
    40   19   20 ar
    41   19   51 1
    42   20   21 ar
    43   20   52 1
    44   21   22 ar
    45   21   32 1
    46   22   23 ar
    47   22   24 1
    48   23   53 1
    49   24   25 1
    50   24   54 1
    51   24   55 1
    52   25   29 1
    53   25   26 1
    54   26   27 2
    55   26   31 1
    56   27   28 1
    57   27   56 1
    58   28   29 2
    59   28   30 1
    60   30   57 1
    61   30   58 1
    62   30   59 1
    63   31   60 1
    64   31   61 1
    65   31   62 1
    66   32   33 1
    67   33   63 1
    68   33   64 1
    69   33   65 1
@<TRIPOS>MOLECULE
ZINC22921702
   62    65     0     0     0
SMALL
USER_CHARGES

@<TRIPOS>ATOM
      1 C1         -0.0187    1.5258    0.0104 C.3       1 <0>        -0.1587
      2 C2          0.0021   -0.0041    0.0020 C.3       1 <0>         0.2305
      3 H1          0.5293   -0.3651    0.8851 H         1 <0>         0.1286
      4 C3          0.7074   -0.4901   -1.2379 C.2       1 <0>         0.0730
      5 N1          0.2585   -0.4992   -2.4590 N.2       1 <0>        -0.4960
      6 C4          0.9926   -0.9633   -3.4912 C.ar      1 <0>         0.0743
      7 C5          0.6732   -1.0497   -4.8624 C.ar      1 <0>        -0.0581
      8 C6          1.5699   -1.5587   -5.7512 C.ar      1 <0>        -0.1069
      9 C7          2.8197   -2.0076   -5.3471 C.ar      1 <0>        -0.0891
     10 C8          3.1692   -1.9386   -4.0116 C.ar      1 <0>        -0.0653
     11 C9          2.2713   -1.4265   -3.1067 C.ar      1 <0>        -0.1642
     12 S1          2.2567   -1.1369   -1.3568 S.3       1 <0>         0.1042
     13 N2         -1.3723   -0.5112    0.0124 N.am      1 <0>        -0.5975
     14 C10        -2.2896   -0.1637   -1.0758 C.3       1 <0>         0.0788
     15 C11        -1.7929   -1.2973    1.0231 C.2       1 <0>         0.5181
     16 O1         -1.0336   -1.5850    1.9240 O.2       1 <0>        -0.5242
     17 C12        -3.2067   -1.8190    1.0338 C.3       1 <0>         0.0386
     18 N3         -3.4150   -2.6446    2.2309 N.3       1 <0>        -0.5222
     19 C13        -2.5980   -3.8651    2.1775 C.3       1 <0>         0.0199
     20 C14        -2.7980   -4.6659    3.4661 C.3       1 <0>         0.0009
     21 N4         -4.2179   -5.0125    3.6120 N.4       1 <0>        -0.3858
     22 C15        -5.0184   -3.7834    3.6885 C.3       1 <0>        -0.0018
     23 C16        -4.8368   -2.9752    2.4018 C.3       1 <0>         0.0271
     24 C17        -4.4066   -5.7967    4.8397 C.3       1 <0>         0.0391
     25 C18        -5.8391   -6.2565    4.9269 C.2       1 <0>        -0.2530
     26 C19        -6.1140   -7.5456    5.0685 C.2       1 <0>        -0.0145
     27 C20        -7.5190   -7.9967    5.1540 C.ar      1 <0>        -0.0993
     28 C21        -8.5585   -7.0688    5.0802 C.ar      1 <0>        -0.0999
     29 C22        -9.8678   -7.4963    5.1607 C.ar      1 <0>        -0.1212
     30 C23       -10.1511   -8.8416    5.3146 C.ar      1 <0>        -0.0949
     31 C24        -9.1251   -9.7666    5.3889 C.ar      1 <0>        -0.1191
     32 C25        -7.8117   -9.3528    5.3030 C.ar      1 <0>        -0.0900
     33 H2          1.0039    1.9031    0.0027 H         1 <0>         0.0790
     34 H3         -0.5459    1.8868   -0.8726 H         1 <0>         0.0722
     35 H4         -0.5289    1.8773    0.9072 H         1 <0>         0.0779
     36 H5         -0.2910   -0.7095   -5.2101 H         1 <0>         0.1335
     37 H6          1.3023   -1.6150   -6.7960 H         1 <0>         0.1378
     38 H7          3.5139   -2.4081   -6.0710 H         1 <0>         0.1424
     39 H8          4.1382   -2.2838   -3.6828 H         1 <0>         0.1369
     40 H9         -2.2139   -0.9097   -1.8669 H         1 <0>         0.0670
     41 H10        -3.3110   -0.1390   -0.6961 H         1 <0>         0.0687
     42 H11        -2.0262    0.8162   -1.4740 H         1 <0>         0.0848
     43 H12        -3.9032   -0.9806    1.0449 H         1 <0>         0.1202
     44 H13        -3.3783   -2.4220    0.1422 H         1 <0>         0.0776
     45 H14        -2.9022   -4.4694    1.3229 H         1 <0>         0.0560
     46 H15        -1.5468   -3.5950    2.0767 H         1 <0>         0.1390
     47 H16        -2.2038   -5.5787    3.4226 H         1 <0>         0.1352
     48 H17        -2.4809   -4.0664    4.3194 H         1 <0>         0.1405
     49 H18        -6.0703   -4.0418    3.8098 H         1 <0>         0.1358
     50 H19        -4.6899   -3.1883    4.5406 H         1 <0>         0.1391
     51 H20        -5.4190   -2.0559    2.4645 H         1 <0>         0.1247
     52 H21        -5.1779   -3.5648    1.5508 H         1 <0>         0.0617
     53 H22        -3.7470   -6.6642    4.8218 H         1 <0>         0.1306
     54 H23        -4.1702   -5.1784    5.7057 H         1 <0>         0.1364
     55 H24        -6.6418   -5.5359    4.8740 H         1 <0>         0.1362
     56 H25        -5.3113   -8.2663    5.1214 H         1 <0>         0.1305
     57 H26        -8.3386   -6.0182    4.9607 H         1 <0>         0.1230
     58 H27       -10.6733   -6.7791    5.1037 H         1 <0>         0.1300
     59 H28       -11.1777   -9.1711    5.3774 H         1 <0>         0.1308
     60 H29        -9.3528  -10.8154    5.5098 H         1 <0>         0.1320
     61 H30        -7.0117  -10.0765    5.3559 H         1 <0>         0.1292
     62 H31        -4.5143   -5.5577    2.8163 H         1 <0>         0.4198
@<TRIPOS>BOND
     1    1    2 1
     2    1   33 1
     3    1   34 1
     4    1   35 1
     5    2    3 1
     6    2    4 1
     7    2   13 1
     8    4   12 1
     9    4    5 2
    10    5    6 1
    11    6   11 ar
    12    6    7 ar
    13    7    8 ar
    14    7   36 1
    15    8    9 ar
    16    8   37 1
    17    9   10 ar
    18    9   38 1
    19   10   11 ar
    20   10   39 1
    21   11   12 1
    22   13   14 1
    23   13   15 am
    24   14   40 1
    25   14   41 1
    26   14   42 1
    27   15   16 2
    28   15   17 1
    29   17   18 1
    30   17   43 1
    31   17   44 1
    32   18   23 1
    33   18   19 1
    34   19   20 1
    35   19   45 1
    36   19   46 1
    37   20   21 1
    38   20   47 1
    39   20   48 1
    40   21   22 1
    41   21   24 1
    42   21   62 1
    43   22   23 1
    44   22   49 1
    45   22   50 1
    46   23   51 1
    47   23   52 1
    48   24   25 1
    49   24   53 1
    50   24   54 1
    51   25   26 2
    52   25   55 1
    53   26   27 1
    54   26   56 1
    55   27   32 ar
    56   27   28 ar
    57   28   29 ar
    58   28   57 1
    59   29   30 ar
    60   29   58 1
    61   30   31 ar
    62   30   59 1
    63   31   32 ar
    64   31   60 1
    65   32   61 1
@<TRIPOS>MOLECULE
ZINC60321374
   50    52     0     0     0
SMALL
USER_CHARGES

@<TRIPOS>ATOM
      1 C1          1.0245   -2.7524   -3.8374 C.3       1 <0>        -0.1908
      2 C2          0.2743   -1.5292   -3.3064 C.3       1 <0>        -0.0108
      3 N1         -1.1039   -1.9088   -2.9682 N.4       1 <0>        -0.3880
      4 C3         -1.0865   -2.8743   -1.8627 C.3       1 <0>         0.0000
      5 C4         -2.5141   -3.3346   -1.5600 C.3       1 <0>        -0.1904
      6 C5         -3.3632   -2.1220   -1.1676 C.3       1 <0>         0.1424
      7 C6         -3.3136   -1.0893   -2.2973 C.3       1 <0>        -0.1894
      8 C7         -1.8564   -0.7122   -2.5727 C.3       1 <0>         0.0019
      9 N2         -4.7491   -2.5441   -0.9502 N.pl3     1 <0>        -0.9559
     10 C8         -5.4291   -2.2083    0.3032 C.3       1 <0>         0.0795
     11 C9         -4.7835   -1.1452    1.1943 C.3       1 <0>        -0.1796
     12 C10        -4.7453   -2.6174    1.6094 C.3       1 <0>        -0.1771
     13 S1         -5.5471   -3.4008   -2.1214 S.o2      1 <0>         2.7069
     14 O1         -6.9236   -3.0694   -2.0001 O.2       1 <0>        -0.9267
     15 O2         -4.8215   -3.2117   -3.3284 O.2       1 <0>        -0.9582
     16 C11        -5.4018   -5.1076   -1.7085 C.ar      1 <0>        -0.6932
     17 C12        -4.6752   -5.9561   -2.5220 C.ar      1 <0>         0.0057
     18 C13        -4.5601   -7.2962   -2.1985 C.ar      1 <0>        -0.0601
     19 C14        -5.1725   -7.7902   -1.0600 C.ar      1 <0>        -0.0101
     20 C15        -5.9004   -6.9451   -0.2441 C.ar      1 <0>        -0.1273
     21 C16        -6.0116   -5.5989   -0.5642 C.ar      1 <0>         0.2370
     22 O3         -6.7225   -4.7646    0.2399 O.3       1 <0>        -0.3299
     23 C17        -8.1371   -4.7219    0.0419 C.3       1 <0>         0.0234
     24 Br1        -6.7377   -7.6204    1.3111 Br        1 <0>         0.0046
     25 Cl1        -3.6466   -8.3597   -3.2223 Cl        1 <0>        -0.0324
     26 H1          2.0471   -2.4707   -4.0884 H         1 <0>         0.1069
     27 H2          1.0389   -3.5297   -3.0735 H         1 <0>         0.0801
     28 H3          0.5220   -3.1281   -4.7287 H         1 <0>         0.0818
     29 H4          0.7768   -1.1534   -2.4152 H         1 <0>         0.1296
     30 H5          0.2599   -0.7519   -4.0704 H         1 <0>         0.1324
     31 H6         -0.4793   -3.7352   -2.1423 H         1 <0>         0.1387
     32 H7         -0.6615   -2.4034   -0.9763 H         1 <0>         0.1340
     33 H8         -2.9401   -3.8059   -2.4458 H         1 <0>         0.1010
     34 H9         -2.4993   -4.0500   -0.7378 H         1 <0>         0.1221
     35 H10        -2.9676   -1.6808   -0.2528 H         1 <0>         0.1192
     36 H11        -3.7562   -1.5140   -3.1983 H         1 <0>         0.1213
     37 H12        -3.8702   -0.1999   -2.0021 H         1 <0>         0.1216
     38 H13        -1.4149   -0.2875   -1.6711 H         1 <0>         0.1307
     39 H14        -1.8175    0.0230   -3.3764 H         1 <0>         0.1372
     40 H15        -6.5180   -2.2458    0.2720 H         1 <0>         0.1513
     41 H16        -3.8529   -0.6957    0.8479 H         1 <0>         0.0973
     42 H17        -5.4478   -0.4829    1.7495 H         1 <0>         0.1107
     43 H18        -5.3844   -2.9235    2.4376 H         1 <0>         0.1099
     44 H19        -3.7896   -3.1363    1.5361 H         1 <0>         0.0946
     45 H20        -4.1970   -5.5728   -3.4113 H         1 <0>         0.1613
     46 H21        -5.0818   -8.8368   -0.8093 H         1 <0>         0.1607
     47 H22        -8.3511   -4.4911   -1.0017 H         1 <0>         0.0760
     48 H23        -8.5688   -5.6900    0.2958 H         1 <0>         0.0591
     49 H24        -8.5703   -3.9521    0.6805 H         1 <0>         0.1132
     50 H25        -1.5428   -2.3301   -3.7731 H         1 <0>         0.4278
@<TRIPOS>BOND
     1    1    2 1
     2    1   26 1
     3    1   27 1
     4    1   28 1
     5    2    3 1
     6    2   29 1
     7    2   30 1
     8    3    8 1
     9    3    4 1
    10    3   50 1
    11    4    5 1
    12    4   31 1
    13    4   32 1
    14    5    6 1
    15    5   33 1
    16    5   34 1
    17    6    7 1
    18    6    9 1
    19    6   35 1
    20    7    8 1
    21    7   36 1
    22    7   37 1
    23    8   38 1
    24    8   39 1
    25    9   10 1
    26    9   13 1
    27   10   12 1
    28   10   11 1
    29   10   40 1
    30   11   12 1
    31   11   41 1
    32   11   42 1
    33   12   43 1
    34   12   44 1
    35   13   14 2
    36   13   15 2
    37   13   16 1
    38   16   21 ar
    39   16   17 ar
    40   17   18 ar
    41   17   45 1
    42   18   19 ar
    43   18   25 1
    44   19   20 ar
    45   19   46 1
    46   20   21 ar
    47   20   24 1
    48   21   22 1
    49   22   23 1
    50   23   47 1
    51   23   48 1
    52   23   49 1
@<TRIPOS>MOLECULE
ZINC05026021
   45    46     0     0     0
SMALL
USER_CHARGES
5-[(2-chlorophenyl)methylene]-3-(3-diethylaminopropyl)-2-thioxo-thiazolidin-4-one
@<TRIPOS>ATOM
      1 C1         -2.2445    2.3926    6.5775 C.3       1 <0>        -0.1894
      2 C2         -2.1843    2.6830    5.0765 C.3       1 <0>        -0.0106
      3 C3         -4.5238    2.1585    4.7384 C.3       1 <0>        -0.0123
      4 C4         -5.4297    0.9527    4.4807 C.3       1 <0>        -0.1903
      5 C5         -2.9491    1.8969    2.9178 C.3       1 <0>        -0.0006
      6 C6         -1.7364    1.0536    2.5190 C.3       1 <0>        -0.1667
      7 C7         -1.5371    1.1313    1.0040 C.3       1 <0>         0.0885
      8 N1         -0.3759    0.3239    0.6222 N.am      1 <0>        -0.5235
      9 C8         -0.5480   -0.9512    0.3167 C.2       1 <0>         0.5492
     10 O1         -1.6462   -1.4742    0.3495 O.2       1 <0>        -0.4560
     11 C9          0.6621   -1.7087   -0.0661 C.2       1 <0>        -0.2603
     12 C10         0.7899   -3.0106   -0.4250 C.2       1 <0>         0.1105
     13 C11         2.1253   -3.5884   -0.6309 C.ar      1 <0>        -0.1047
     14 C12         3.2581   -2.9404   -0.1251 C.ar      1 <0>        -0.0752
     15 C13         4.5065   -3.4914   -0.3183 C.ar      1 <0>        -0.1103
     16 C14         4.6438   -4.6775   -1.0194 C.ar      1 <0>        -0.0673
     17 C15         3.5305   -5.3227   -1.5278 C.ar      1 <0>        -0.1093
     18 C16         2.2722   -4.7874   -1.3393 C.ar      1 <0>         0.0038
     19 Cl1         0.8764   -5.5976   -1.9788 Cl        1 <0>        -0.0436
     20 S1          1.9109   -0.4372    0.0733 S.3       1 <0>         0.1051
     21 C17         0.8431    0.8993    0.5849 C.2       1 <0>         0.2518
     22 S2          1.2649    2.5197    0.9419 S.2       1 <0>        -0.3305
     23 H1         -1.5338    3.0329    7.1001 H         1 <0>         0.1075
     24 H2         -3.2510    2.5907    6.9458 H         1 <0>         0.0808
     25 H3         -1.9914    1.3475    6.7558 H         1 <0>         0.0791
     26 H4         -1.1777    2.4849    4.7081 H         1 <0>         0.1287
     27 H5         -2.4374    3.7281    4.8981 H         1 <0>         0.1338
     28 H6         -4.5649    2.4247    5.7946 H         1 <0>         0.1328
     29 H7         -4.8627    3.0025    4.1376 H         1 <0>         0.1325
     30 H8         -5.3366    0.6444    3.4394 H         1 <0>         0.0789
     31 H9         -5.1331    0.1299    5.1312 H         1 <0>         0.0804
     32 H10        -6.4646    1.2249    4.6880 H         1 <0>         0.1074
     33 H11        -2.7816    2.9342    2.6278 H         1 <0>         0.1404
     34 H12        -3.8374    1.5174    2.4129 H         1 <0>         0.1347
     35 H13        -1.9030    0.0167    2.8109 H         1 <0>         0.0932
     36 H14        -0.8477    1.4344    3.0224 H         1 <0>         0.0983
     37 H15        -1.3705    2.1682    0.7122 H         1 <0>         0.1235
     38 H16        -2.4258    0.7505    0.5007 H         1 <0>         0.1150
     39 H17        -0.0898   -3.6226   -0.5593 H         1 <0>         0.1682
     40 H18         3.1538   -2.0131    0.4185 H         1 <0>         0.1379
     41 H19         5.3810   -2.9940    0.0745 H         1 <0>         0.1446
     42 H20         5.6256   -5.1013   -1.1706 H         1 <0>         0.1469
     43 H21         3.6463   -6.2473   -2.0738 H         1 <0>         0.1486
     44 N2         -3.1372    1.7930    4.3802 N.4       1 <0>        -0.3969
     45 H22        -2.9620    0.8240    4.6710 H         1 <0>         0.4252
@<TRIPOS>BOND
     1    1    2 1
     2    1   23 1
     3    1   24 1
     4    1   25 1
     5    2   26 1
     6    2   27 1
     7    2   44 1
     8    3    4 1
     9    3   28 1
    10    3   29 1
    11    3   44 1
    12    4   30 1
    13    4   31 1
    14    4   32 1
    15    5    6 1
    16    5   33 1
    17    5   34 1
    18    5   44 1
    19    6    7 1
    20    6   35 1
    21    6   36 1
    22    7    8 1
    23    7   37 1
    24    7   38 1
    25    8   21 1
    26    8    9 am
    27    9   10 2
    28    9   11 1
    29   11   12 2
    30   11   20 1
    31   12   13 1
    32   12   39 1
    33   13   18 ar
    34   13   14 ar
    35   14   15 ar
    36   14   40 1
    37   15   16 ar
    38   15   41 1
    39   16   17 ar
    40   16   42 1
    41   17   18 ar
    42   17   43 1
    43   18   19 1
    44   20   21 1
    45   21   22 2
    46   44   45 1
@<TRIPOS>MOLECULE
ZINC28761687
   56    59     0     0     0
SMALL
USER_CHARGES
1-allyl-4-[(S)-phenyl-[4-(2-pyridyl)phenyl]methyl]piperazine
@<TRIPOS>ATOM
      1 C1          6.7628    8.0010   -6.1930 C.2       1 <0>        -0.1113
      2 C2          7.7778    7.5628   -5.4902 C.2       1 <0>        -0.2381
      3 C3          7.9622    8.0208   -4.0664 C.3       1 <0>         0.0331
      4 N1          8.0490    6.8505   -3.1828 N.4       1 <0>        -0.3992
      5 C4          8.4637    7.2426   -1.8286 C.3       1 <0>         0.0022
      6 C5          8.6190    5.9901   -0.9628 C.3       1 <0>         0.0236
      7 N2          7.3442    5.2597   -0.9294 N.3       1 <0>        -0.5323
      8 C6          6.9296    4.8676   -2.2836 C.3       1 <0>         0.0220
      9 C7          6.7743    6.1201   -3.1494 C.3       1 <0>         0.0032
     10 C8          7.4311    4.0893   -0.0458 C.3       1 <0>         0.1787
     11 H1          8.2213    3.4281   -0.4310 H         1 <0>         0.0682
     12 C9          7.7669    4.5395    1.3526 C.ar      1 <0>        -0.0922
     13 C10         7.1898    5.6855    1.8671 C.ar      1 <0>        -0.0951
     14 C11         7.4945    6.0960    3.1515 C.ar      1 <0>        -0.1219
     15 C12         8.3835    5.3658    3.9179 C.ar      1 <0>        -0.1097
     16 C13         8.9641    4.2225    3.4017 C.ar      1 <0>        -0.1153
     17 C14         8.6562    3.8096    2.1189 C.ar      1 <0>        -0.1090
     18 C15         6.1084    3.3672   -0.0371 C.ar      1 <0>        -0.0833
     19 C16         6.0783    1.9843   -0.0439 C.ar      1 <0>        -0.1120
     20 C17         4.8698    1.3178   -0.0364 C.ar      1 <0>        -0.0764
     21 C18         3.6785    2.0406   -0.0216 C.ar      1 <0>        -0.0344
     22 C19         3.7147    3.4338   -0.0202 C.ar      1 <0>        -0.1046
     23 C20         4.9290    4.0898   -0.0220 C.ar      1 <0>        -0.0981
     24 C21         2.3764    1.3298   -0.0135 C.ar      1 <0>         0.1560
     25 C22         1.1903    2.0607    0.0018 C.ar      1 <0>        -0.1620
     26 C23        -0.0167    1.3837    0.0096 C.ar      1 <0>        -0.0712
     27 C24         0.0021   -0.0041    0.0020 C.ar      1 <0>        -0.1682
     28 C25         1.2159   -0.6656   -0.0131 C.ar      1 <0>         0.1073
     29 N3          2.3510    0.0036   -0.0204 N.ar      1 <0>        -0.4777
     30 H2          6.6282    7.6667   -7.2323 H         1 <0>         0.1255
     31 H3          6.0451    8.7033   -5.7438 H         1 <0>         0.1135
     32 H4          8.4955    6.8605   -5.9394 H         1 <0>         0.1360
     33 H5          8.8882    8.6092   -3.9876 H         1 <0>         0.1356
     34 H6          7.1058    8.6431   -3.7676 H         1 <0>         0.1270
     35 H7          9.4244    7.7759   -1.8793 H         1 <0>         0.1358
     36 H8          7.7012    7.9018   -1.3881 H         1 <0>         0.1348
     37 H9          9.4014    5.3447   -1.3886 H         1 <0>         0.0619
     38 H10         8.9016    6.2834    0.0590 H         1 <0>         0.1273
     39 H11         7.6921    4.2084   -2.7241 H         1 <0>         0.0616
     40 H12         5.9689    4.3342   -2.2330 H         1 <0>         0.1279
     41 H13         5.9924    6.7664   -2.7240 H         1 <0>         0.1331
     42 H14         6.4923    5.8277   -4.1717 H         1 <0>         0.1349
     43 H15         6.4984    6.2582    1.2668 H         1 <0>         0.1270
     44 H16         7.0405    6.9891    3.5549 H         1 <0>         0.1241
     45 H17         8.6241    5.6884    4.9201 H         1 <0>         0.1251
     46 H18         9.6587    3.6520    4.0005 H         1 <0>         0.1261
     47 H19         9.1101    2.9165    1.7155 H         1 <0>         0.1210
     48 H20         7.0022    1.4251   -0.0553 H         1 <0>         0.1250
     49 H21         4.8475    0.2380   -0.0417 H         1 <0>         0.1387
     50 H22         2.7944    3.9989   -0.0136 H         1 <0>         0.1285
     51 H23         4.9583    5.1694   -0.0164 H         1 <0>         0.1313
     52 H24         1.2124    3.1405    0.0070 H         1 <0>         0.1363
     53 H25        -0.9524    1.9231    0.0170 H         1 <0>         0.1394
     54 H26        -0.9227   -0.5619    0.0082 H         1 <0>         0.1403
     55 H27         1.2341   -1.7454   -0.0195 H         1 <0>         0.1618
     56 H28         8.8162    6.1763   -3.5912 H         1 <0>         0.4382
@<TRIPOS>BOND
     1    1    2 2
     2    1   30 1
     3    1   31 1
     4    2    3 1
     5    2   32 1
     6    3    4 1
     7    3   33 1
     8    3   34 1
     9    4    9 1
    10    4    5 1
    11    4   56 1
    12    5    6 1
    13    5   35 1
    14    5   36 1
    15    6    7 1
    16    6   37 1
    17    6   38 1
    18    7    8 1
    19    7   10 1
    20    8    9 1
    21    8   39 1
    22    8   40 1
    23    9   41 1
    24    9   42 1
    25   10   11 1
    26   10   12 1
    27   10   18 1
    28   12   17 ar
    29   12   13 ar
    30   13   14 ar
    31   13   43 1
    32   14   15 ar
    33   14   44 1
    34   15   16 ar
    35   15   45 1
    36   16   17 ar
    37   16   46 1
    38   17   47 1
    39   18   23 ar
    40   18   19 ar
    41   19   20 ar
    42   19   48 1
    43   20   21 ar
    44   20   49 1
    45   21   22 ar
    46   21   24 1
    47   22   23 ar
    48   22   50 1
    49   23   51 1
    50   24   29 ar
    51   24   25 ar
    52   25   26 ar
    53   25   52 1
    54   26   27 ar
    55   26   53 1
    56   27   28 ar
    57   27   54 1
    58   28   29 ar
    59   28   55 1
@<TRIPOS>MOLECULE
ZINC38889290
   54    56     0     0     0
SMALL
USER_CHARGES

@<TRIPOS>ATOM
      1 C1          0.6978    1.8019   -0.6079 C.3       1 <0>        -0.1549
      2 C2          0.6370    0.2852   -0.4160 C.3       1 <0>        -0.1077
      3 C3          1.1106   -0.4100   -1.6940 C.3       1 <0>        -0.1340
      4 C4          1.0507   -1.9039   -1.5051 C.2       1 <0>         0.5416
      5 O1          0.6670   -2.3670   -0.4518 O.2       1 <0>        -0.5265
      6 N1          1.4236   -2.7253   -2.5064 N.am      1 <0>        -0.5684
      7 C5          1.3654   -4.1776   -2.3227 C.3       1 <0>         0.1308
      8 C6          0.0714   -4.7176   -2.9349 C.3       1 <0>        -0.1624
      9 H1         -0.0044   -4.3245   -3.9488 H         1 <0>         0.1757
     10 C7          0.1952   -6.2258   -3.0288 C.2       1 <0>         0.1409
     11 C8         -0.7473   -6.9715   -2.3851 C.ar      1 <0>        -0.1797
     12 C9         -0.7033   -8.4336   -2.4245 C.ar      1 <0>         0.0048
     13 C10        -1.6636   -9.1355   -1.7690 C.ar      1 <0>        -0.1280
     14 C11        -2.6819   -8.4913   -1.0658 C.ar      1 <0>         0.0927
     15 C12        -2.7787   -7.1382   -0.9914 C.ar      1 <0>        -0.2253
     16 C13        -1.8336   -6.3180   -1.6346 C.ar      1 <0>         0.3604
     17 N2         -1.9380   -4.9917   -1.5540 N.am      1 <0>        -0.5904
     18 C14        -1.0865   -4.1643   -2.1351 C.2       1 <0>         0.5168
     19 O2         -1.2338   -2.9617   -2.0258 O.2       1 <0>        -0.4098
     20 C15        -1.6287  -10.6417   -1.8022 C.3       1 <0>        -0.1288
     21 C16         1.8663   -2.1910   -3.7215 C.ar      1 <0>         0.0975
     22 C17         0.9479   -1.8319   -4.6996 C.ar      1 <0>        -0.1072
     23 C18         1.3880   -1.3049   -5.8977 C.ar      1 <0>        -0.1160
     24 C19         2.7418   -1.1350   -6.1244 C.ar      1 <0>        -0.0593
     25 C20         3.6585   -1.4919   -5.1530 C.ar      1 <0>        -0.1100
     26 C21         3.2244   -2.0134   -3.9498 C.ar      1 <0>        -0.0673
     27 C22         4.2239   -2.3954   -2.8887 C.3       1 <0>        -0.1187
     28 C23         3.2186   -0.5601   -7.4333 C.3       1 <0>        -0.1248
     29 H2          1.7237    2.0998   -0.8247 H         1 <0>         0.0564
     30 H3          0.0528    2.0892   -1.4382 H         1 <0>         0.0554
     31 H4          0.3604    2.2971    0.3026 H         1 <0>         0.0617
     32 H5          1.2821   -0.0022    0.4143 H         1 <0>         0.0683
     33 H6         -0.3888   -0.0128   -0.1991 H         1 <0>         0.0680
     34 H7          0.4656   -0.1226   -2.5243 H         1 <0>         0.0962
     35 H8          2.1365   -0.1120   -1.9109 H         1 <0>         0.0949
     36 H9          2.2209   -4.6406   -2.8145 H         1 <0>         0.1139
     37 H10         1.3884   -4.4103   -1.2581 H         1 <0>         0.1105
     38 H11         0.9971   -6.6904   -3.5832 H         1 <0>         0.2010
     39 H12         0.0788   -8.9455   -2.9654 H         1 <0>         0.1738
     40 H13        -3.4233   -9.0925   -0.5605 H         1 <0>         0.1666
     41 H14        -3.5872   -6.6887   -0.4340 H         1 <0>         0.1706
     42 H15        -1.0383  -11.0101   -0.9633 H         1 <0>         0.0897
     43 H16        -2.6445  -11.0303   -1.7301 H         1 <0>         0.0839
     44 H17        -1.1781  -10.9741   -2.7374 H         1 <0>         0.0838
     45 H18        -0.1093   -1.9650   -4.5235 H         1 <0>         0.1236
     46 H19         0.6744   -1.0254   -6.6587 H         1 <0>         0.1307
     47 H20         4.7150   -1.3583   -5.3332 H         1 <0>         0.1327
     48 H21         4.4408   -3.4612   -2.9607 H         1 <0>         0.0731
     49 H22         5.1427   -1.8271   -3.0335 H         1 <0>         0.0757
     50 H23         3.8112   -2.1743   -1.9043 H         1 <0>         0.0657
     51 H24         3.2812    0.5251   -7.3522 H         1 <0>         0.0789
     52 H25         4.2028   -0.9640   -7.6706 H         1 <0>         0.0724
     53 H26         2.5167   -0.8254   -8.2239 H         1 <0>         0.0717
     54 H27        -2.6738   -4.6160   -1.0456 H         1 <0>         0.4389
@<TRIPOS>BOND
     1    1    2 1
     2    1   29 1
     3    1   30 1
     4    1   31 1
     5    2    3 1
     6    2   32 1
     7    2   33 1
     8    3    4 1
     9    3   34 1
    10    3   35 1
    11    4    5 2
    12    4    6 am
    13    6    7 1
    14    6   21 1
    15    7    8 1
    16    7   36 1
    17    7   37 1
    18    8    9 1
    19    8   18 1
    20    8   10 1
    21   10   11 2
    22   10   38 1
    23   11   16 ar
    24   11   12 ar
    25   12   13 ar
    26   12   39 1
    27   13   14 ar
    28   13   20 1
    29   14   15 ar
    30   14   40 1
    31   15   16 ar
    32   15   41 1
    33   16   17 2
    34   17   18 am
    35   17   54 1
    36   18   19 2
    37   20   42 1
    38   20   43 1
    39   20   44 1
    40   21   26 ar
    41   21   22 ar
    42   22   23 ar
    43   22   45 1
    44   23   24 ar
    45   23   46 1
    46   24   25 ar
    47   24   28 1
    48   25   26 ar
    49   25   47 1
    50   26   27 1
    51   27   48 1
    52   27   49 1
    53   27   50 1
    54   28   51 1
    55   28   52 1
    56   28   53 1
@<TRIPOS>MOLECULE
ZINC47257593
   49    52     0     0     0
SMALL
USER_CHARGES

@<TRIPOS>ATOM
      1 C1         -2.4726    1.4778    1.1888 C.3       1 <0>        -0.1166
      2 C2         -2.0206    0.0492    1.0279 C.2       1 <0>        -0.1141
      3 C3         -1.6778   -0.4370   -0.2416 C.2       1 <0>        -0.0104
      4 C4         -1.2695   -1.7299   -0.3786 C.2       1 <0>        -0.1415
      5 C5         -1.1985   -2.5569    0.7574 C.2       1 <0>         0.4019
      6 N1         -0.7995   -3.8207    0.6255 N.2       1 <0>        -0.5433
      7 C6         -0.7195   -4.6302    1.6699 C.2       1 <0>         0.1577
      8 C7         -1.0530   -4.1702    2.9289 C.2       1 <0>        -0.3020
      9 C8         -1.4731   -2.8431    3.0754 C.2       1 <0>         0.5099
     10 O1         -1.7745   -2.4060    4.1748 O.2       1 <0>        -0.5041
     11 N2         -1.5390   -2.0537    1.9820 N.am      1 <0>        -0.4189
     12 C9         -1.9412   -0.7588    2.1089 C.2       1 <0>         0.0915
     13 C10        -0.2646   -6.0550    1.4850 C.3       1 <0>         0.0522
     14 N3         -1.2453   -6.7797    0.6658 N.4       1 <0>        -0.3524
     15 C11        -1.2764   -6.2033   -0.6850 C.3       1 <0>        -0.0605
     16 C12        -2.4547   -5.2933   -1.0378 C.3       1 <0>        -0.1310
     17 C13        -2.3657   -6.6974   -1.6390 C.3       1 <0>        -0.1730
     18 C14        -0.8646   -8.1962    0.5851 C.3       1 <0>         0.0799
     19 H1          0.1138   -8.2831    0.1126 H         1 <0>         0.1500
     20 C15        -1.9011   -8.9564   -0.2447 C.3       1 <0>        -0.1814
     21 C16        -0.8058   -8.7804    1.9730 C.ar      1 <0>        -0.1292
     22 C17        -1.5544   -8.2203    2.9912 C.ar      1 <0>        -0.1237
     23 C18        -1.5006   -8.7560    4.2642 C.ar      1 <0>        -0.0931
     24 C19        -0.6981   -9.8524    4.5201 C.ar      1 <0>        -0.0814
     25 C20         0.0508  -10.4133    3.5030 C.ar      1 <0>        -0.0914
     26 C21        -0.0071   -9.8809    2.2271 C.ar      1 <0>        -0.0145
     27 Cl1         0.9283  -10.5890    0.9475 Cl        1 <0>        -0.0422
     28 H2         -1.6072    2.1140    1.3742 H         1 <0>         0.0875
     29 H3         -2.9755    1.8045    0.2786 H         1 <0>         0.0849
     30 H4         -3.1622    1.5481    2.0301 H         1 <0>         0.0803
     31 H5         -1.7373    0.2087   -1.1053 H         1 <0>         0.1626
     32 H6         -1.0031   -2.1166   -1.3512 H         1 <0>         0.1727
     33 H7         -0.9909   -4.8240    3.7863 H         1 <0>         0.1638
     34 H8         -2.2034   -0.3742    3.0834 H         1 <0>         0.1882
     35 H9          0.7042   -6.0652    0.9857 H         1 <0>         0.1512
     36 H10        -0.1769   -6.5376    2.4584 H         1 <0>         0.1496
     37 H11        -0.3048   -5.9583   -1.1141 H         1 <0>         0.1790
     38 H12        -3.2068   -5.1223   -0.2676 H         1 <0>         0.1046
     39 H13        -2.2584   -4.4493   -1.6991 H         1 <0>         0.1310
     40 H14        -2.1109   -6.7772   -2.6958 H         1 <0>         0.1342
     41 H15        -3.0593   -7.4502   -1.2644 H         1 <0>         0.1247
     42 H16        -2.9026   -8.6979    0.0994 H         1 <0>         0.0808
     43 H17        -1.7963   -8.6842   -1.2949 H         1 <0>         0.1023
     44 H18        -1.7430  -10.0287   -0.1298 H         1 <0>         0.1049
     45 H19        -2.1812   -7.3636    2.7920 H         1 <0>         0.1238
     46 H20        -2.0854   -8.3178    5.0594 H         1 <0>         0.1441
     47 H21        -0.6562  -10.2704    5.5150 H         1 <0>         0.1473
     48 H22         0.6779  -11.2695    3.7031 H         1 <0>         0.1492
     49 H23        -2.1590   -6.7004    1.0864 H         1 <0>         0.4154
@<TRIPOS>BOND
     1    1    2 1
     2    1   28 1
     3    1   29 1
     4    1   30 1
     5    2   12 2
     6    2    3 1
     7    3    4 2
     8    3   31 1
     9    4    5 1
    10    4   32 1
    11    5   11 1
    12    5    6 2
    13    6    7 1
    14    7    8 2
    15    7   13 1
    16    8    9 1
    17    8   33 1
    18    9   10 2
    19    9   11 am
    20   11   12 1
    21   12   34 1
    22   13   14 1
    23   13   35 1
    24   13   36 1
    25   14   15 1
    26   14   18 1
    27   14   49 1
    28   15   17 1
    29   15   16 1
    30   15   37 1
    31   16   17 1
    32   16   38 1
    33   16   39 1
    34   17   40 1
    35   17   41 1
    36   18   19 1
    37   18   20 1
    38   18   21 1
    39   20   42 1
    40   20   43 1
    41   20   44 1
    42   21   26 ar
    43   21   22 ar
    44   22   23 ar
    45   22   45 1
    46   23   24 ar
    47   23   46 1
    48   24   25 ar
    49   24   47 1
    50   25   26 ar
    51   25   48 1
    52   26   27 1
@<TRIPOS>MOLECULE
ZINC66531329
   51    53     0     0     0
SMALL
USER_CHARGES

@<TRIPOS>ATOM
      1 C1          1.7155   -2.3537   -0.2950 C.3       1 <0>        -0.1849
      2 C2          0.8849   -2.0461    0.9525 C.3       1 <0>         0.0221
      3 H1          1.3912   -2.4428    1.8325 H         1 <0>         0.1307
      4 C3         -0.4932   -2.6980    0.8205 C.3       1 <0>        -0.1374
      5 C4         -1.3206   -2.3877    2.0712 C.3       1 <0>        -0.1385
      6 C5         -1.4114   -0.8692    2.2474 C.3       1 <0>        -0.1396
      7 C6          0.0007   -0.2850    2.3265 C.3       1 <0>         0.0305
      8 H2          0.5261   -0.7196    3.1769 H         1 <0>         0.1340
      9 N1          0.7308   -0.5929    1.0909 N.4       1 <0>        -0.3731
     10 C7          2.0574    0.0363    1.1387 C.3       1 <0>         0.0630
     11 C8          2.8158   -0.4805    2.3340 C.2       1 <0>         0.0048
     12 C9          3.6796   -1.5203    2.1943 C.2       1 <0>        -0.2095
     13 S1          4.2650   -1.6914    3.8755 S.3       1 <0>         0.1369
     14 C10         3.2976   -0.3627    4.5794 C.2       1 <0>         0.1719
     15 N2          2.6469    0.0764    3.5108 N.2       1 <0>        -0.4990
     16 C11         3.2423    0.1198    5.9752 C.ar      1 <0>        -0.0184
     17 C12         2.4031    1.1821    6.3172 C.ar      1 <0>        -0.0922
     18 C13         2.3542    1.6303    7.6204 C.ar      1 <0>        -0.0813
     19 C14         3.1340    1.0313    8.5947 C.ar      1 <0>        -0.1682
     20 C15         3.9709   -0.0242    8.2692 C.ar      1 <0>         0.1196
     21 C16         4.0259   -0.4893    6.9603 C.ar      1 <0>         0.0903
     22 O1          4.8417   -1.5276    6.6385 O.3       1 <0>        -0.3207
     23 C17         6.1755   -1.2051    6.2395 C.3       1 <0>         0.0273
     24 O2          4.7345   -0.6083    9.2312 O.3       1 <0>        -0.3015
     25 C18         4.6237   -0.0829   10.5554 C.3       1 <0>         0.0209
     26 C19        -0.0850    1.2325    2.5021 C.3       1 <0>        -0.1773
     27 H3          2.6977   -1.8904   -0.2009 H         1 <0>         0.0798
     28 H4          1.8311   -3.4327   -0.3976 H         1 <0>         0.1064
     29 H5          1.2096   -1.9572   -1.1753 H         1 <0>         0.0840
     30 H6         -1.0005   -2.3018   -0.0591 H         1 <0>         0.0885
     31 H7         -0.3771   -3.7771    0.7193 H         1 <0>         0.1102
     32 H8         -2.3223   -2.8020    1.9576 H         1 <0>         0.0950
     33 H9         -0.8397   -2.8279    2.9448 H         1 <0>         0.0782
     34 H10        -1.9378   -0.4350    1.3974 H         1 <0>         0.0870
     35 H11        -1.9517   -0.6410    3.1661 H         1 <0>         0.1092
     36 H12         2.6065   -0.2040    0.2283 H         1 <0>         0.1440
     37 H13         1.9440    1.1173    1.2200 H         1 <0>         0.1449
     38 H14         3.9400   -2.0867    1.3124 H         1 <0>         0.2055
     39 H15         1.7926    1.6531    5.5610 H         1 <0>         0.1413
     40 H16         1.7048    2.4526    7.8821 H         1 <0>         0.1428
     41 H17         3.0903    1.3883    9.6130 H         1 <0>         0.1449
     42 H18         6.6792   -0.6769    7.0490 H         1 <0>         0.0597
     43 H19         6.7182   -2.1224    6.0111 H         1 <0>         0.1050
     44 H20         6.1464   -0.5702    5.3540 H         1 <0>         0.0442
     45 H21         5.2837   -0.6372   11.2227 H         1 <0>         0.1092
     46 H22         4.9087    0.9692   10.5540 H         1 <0>         0.0608
     47 H23         3.5940   -0.1799   10.8998 H         1 <0>         0.0616
     48 H24        -0.7212    1.4641    3.3563 H         1 <0>         0.1003
     49 H25         0.9133    1.6354    2.6728 H         1 <0>         0.0931
     50 H26        -0.5080    1.6791    1.6023 H         1 <0>         0.0733
     51 H27         0.2184   -0.2332    0.2996 H         1 <0>         0.4210
@<TRIPOS>BOND
     1    1    2 1
     2    1   27 1
     3    1   28 1
     4    1   29 1
     5    2    3 1
     6    2    9 1
     7    2    4 1
     8    4    5 1
     9    4   30 1
    10    4   31 1
    11    5    6 1
    12    5   32 1
    13    5   33 1
    14    6    7 1
    15    6   34 1
    16    6   35 1
    17    7    8 1
    18    7    9 1
    19    7   26 1
    20    9   10 1
    21    9   51 1
    22   10   11 1
    23   10   36 1
    24   10   37 1
    25   11   15 1
    26   11   12 2
    27   12   13 1
    28   12   38 1
    29   13   14 1
    30   14   15 2
    31   14   16 1
    32   16   21 ar
    33   16   17 ar
    34   17   18 ar
    35   17   39 1
    36   18   19 ar
    37   18   40 1
    38   19   20 ar
    39   19   41 1
    40   20   21 ar
    41   20   24 1
    42   21   22 1
    43   22   23 1
    44   23   42 1
    45   23   43 1
    46   23   44 1
    47   24   25 1
    48   25   45 1
    49   25   46 1
    50   25   47 1
    51   26   48 1
    52   26   49 1
    53   26   50 1
@<TRIPOS>MOLECULE
ZINC00530704
   40    42     0     0     0
SMALL
USER_CHARGES
3-cyclohexyl-5-[(2,6-difluorophenyl)methylsulfanyl]-1,2,4-triazol-4-amine
@<TRIPOS>ATOM
      1 C1          0.5400    8.4763    0.0411 C.ar      1 <0>        -0.0481
      2 C2          0.4516    7.7962   -1.1588 C.ar      1 <0>        -0.1636
      3 C3          0.2982    6.4200   -1.1656 C.ar      1 <0>         0.1507
      4 C4          0.2330    5.7255    0.0300 C.ar      1 <0>        -0.1623
      5 C5          0.3160    6.4083    1.2312 C.ar      1 <0>         0.1512
      6 C6          0.4746    7.7839    1.2355 C.ar      1 <0>        -0.1635
      7 F1          0.2470    5.7324    2.3989 F         1 <0>        -0.1207
      8 C7          0.0656    4.2279    0.0239 C.3       1 <0>        -0.0532
      9 S1          1.6944    3.4388    0.0038 S.3       1 <0>         0.0016
     10 C8          1.2132    1.7437   -0.0002 C.2       1 <0>         0.1152
     11 N1         -0.0154    1.2810    0.0091 N.2       1 <0>        -0.2751
     12 N2          0.0021   -0.0041    0.0020 N.2       1 <0>        -0.2739
     13 C9          1.2318   -0.4347   -0.0120 C.2       1 <0>         0.2291
     14 N3          2.0475    0.6630   -0.0139 N.pl3     1 <0>        -0.3063
     15 N4          3.4134    0.6755   -0.0273 N.3       1 <0>        -0.5824
     16 C10         1.6733   -1.8755   -0.0244 C.3       1 <0>         0.0056
     17 C11         1.1209   -2.5675   -1.2722 C.3       1 <0>        -0.1093
     18 C12         1.5692   -4.0303   -1.2848 C.3       1 <0>        -0.1173
     19 C13         1.0414   -4.7362   -0.0342 C.3       1 <0>        -0.1231
     20 C14         1.5938   -4.0442    1.2135 C.3       1 <0>        -0.1174
     21 C15         1.1455   -2.5814    1.2261 C.3       1 <0>        -0.1078
     22 F2          0.2117    5.7555   -2.3387 F         1 <0>        -0.1213
     23 H1          0.6600    9.5496    0.0455 H         1 <0>         0.1497
     24 H2          0.5024    8.3383   -2.0915 H         1 <0>         0.1490
     25 H3          0.5435    8.3164    2.1726 H         1 <0>         0.1491
     26 H4         -0.4941    3.9284   -0.8622 H         1 <0>         0.1171
     27 H5         -0.4766    3.9193    0.9177 H         1 <0>         0.1176
     28 H6          3.7657    0.6841   -0.9728 H         1 <0>         0.3675
     29 H7          3.7730    1.4572    0.4997 H         1 <0>         0.3772
     30 H8          2.7623   -1.9217   -0.0354 H         1 <0>         0.0969
     31 H9          0.0319   -2.5213   -1.2612 H         1 <0>         0.0764
     32 H10         1.4970   -2.0645   -2.1631 H         1 <0>         0.0608
     33 H11         2.6582   -4.0765   -1.2957 H         1 <0>         0.0635
     34 H12         1.1757   -4.5233   -2.1737 H         1 <0>         0.0674
     35 H13         1.3608   -5.7784   -0.0432 H         1 <0>         0.0642
     36 H14        -0.0476   -4.6900   -0.0232 H         1 <0>         0.0654
     37 H15         2.6828   -4.0904    1.2026 H         1 <0>         0.0637
     38 H16         1.2178   -4.5472    2.1045 H         1 <0>         0.0675
     39 H17         1.5390   -2.0885    2.1151 H         1 <0>         0.0632
     40 H18         0.0565   -2.5353    1.2371 H         1 <0>         0.0756
@<TRIPOS>BOND
     1    1    6 ar
     2    1    2 ar
     3    1   23 1
     4    2    3 ar
     5    2   24 1
     6    3    4 ar
     7    3   22 1
     8    4    5 ar
     9    4    8 1
    10    5    6 ar
    11    5    7 1
    12    6   25 1
    13    8    9 1
    14    8   26 1
    15    8   27 1
    16    9   10 1
    17   10   14 1
    18   10   11 2
    19   11   12 1
    20   12   13 2
    21   13   14 1
    22   13   16 1
    23   14   15 1
    24   15   28 1
    25   15   29 1
    26   16   21 1
    27   16   17 1
    28   16   30 1
    29   17   18 1
    30   17   31 1
    31   17   32 1
    32   18   19 1
    33   18   33 1
    34   18   34 1
    35   19   20 1
    36   19   35 1
    37   19   36 1
    38   20   21 1
    39   20   37 1
    40   20   38 1
    41   21   39 1
    42   21   40 1
@<TRIPOS>MOLECULE
ZINC36955858
   34    36     0     0     0
SMALL
USER_CHARGES

@<TRIPOS>ATOM
      1 C1         -0.0858    1.5099    0.2047 C.3       1 <0>        -0.1714
      2 C2          0.0021   -0.0041    0.0020 C.3       1 <0>         0.1833
      3 H1          0.5712   -0.2171   -0.9029 H         1 <0>         0.1228
      4 C3         -1.3864   -0.5744   -0.1318 C.ar      1 <0>        -0.0922
      5 C4         -1.6179   -1.9058    0.1605 C.ar      1 <0>        -0.0918
      6 C5         -2.8912   -2.4294    0.0379 C.ar      1 <0>        -0.1077
      7 C6         -3.9338   -1.6221   -0.3771 C.ar      1 <0>        -0.0858
      8 C7         -3.7028   -0.2902   -0.6692 C.ar      1 <0>        -0.0869
      9 C8         -2.4292    0.2348   -0.5413 C.ar      1 <0>        -0.0740
     10 Br1        -5.1285    0.8145   -1.2375 Br        1 <0>        -0.0448
     11 N1          0.6711   -0.6130    1.1543 N.am      1 <0>        -0.5727
     12 C9          0.2302   -0.5288    2.4226 C.2       1 <0>         0.5730
     13 O1         -0.7702    0.0545    2.7890 O.2       1 <0>        -0.4501
     14 C10         1.1681   -1.2662    3.2948 C.ar      1 <0>        -0.0886
     15 C11         1.2292   -1.5184    4.6542 C.ar      1 <0>        -0.0999
     16 C12         2.2749   -2.2701    5.1732 C.ar      1 <0>        -0.0433
     17 C13         3.2578   -2.7700    4.3464 C.ar      1 <0>        -0.1730
     18 C14         3.2151   -2.5272    2.9718 C.ar      1 <0>         0.2985
     19 C15         2.1696   -1.7742    2.4399 C.ar      1 <0>        -0.2504
     20 C16         1.8041   -1.3347    1.0828 C.2       1 <0>         0.5852
     21 O2          2.4242   -1.5811    0.0672 O.2       1 <0>        -0.4815
     22 N2          4.2056   -3.0315    2.1420 N.pl3     1 <0>        -0.8527
     23 H2          0.9185    1.9224    0.3015 H         1 <0>         0.0691
     24 H3         -0.5836    1.9630   -0.6527 H         1 <0>         0.0834
     25 H4         -0.6549    1.7229    1.1096 H         1 <0>         0.0791
     26 H5         -0.8035   -2.5369    0.4844 H         1 <0>         0.1202
     27 H6         -3.0715   -3.4696    0.2660 H         1 <0>         0.1344
     28 H7         -4.9285   -2.0316   -0.4735 H         1 <0>         0.1354
     29 H8         -2.2490    1.2758   -0.7656 H         1 <0>         0.1399
     30 H9          0.4644   -1.1306    5.3108 H         1 <0>         0.1397
     31 H10         2.3187   -2.4645    6.2346 H         1 <0>         0.1435
     32 H11         4.0657   -3.3525    4.7640 H         1 <0>         0.1409
     33 H12         4.9315   -3.5551    2.5160 H         1 <0>         0.4057
     34 H13         4.1724   -2.8607    1.1878 H         1 <0>         0.4129
@<TRIPOS>BOND
     1    1    2 1
     2    1   23 1
     3    1   24 1
     4    1   25 1
     5    2    3 1
     6    2    4 1
     7    2   11 1
     8    4    9 ar
     9    4    5 ar
    10    5    6 ar
    11    5   26 1
    12    6    7 ar
    13    6   27 1
    14    7    8 ar
    15    7   28 1
    16    8    9 ar
    17    8   10 1
    18    9   29 1
    19   11   20 am
    20   11   12 am
    21   12   13 2
    22   12   14 1
    23   14   19 ar
    24   14   15 ar
    25   15   16 ar
    26   15   30 1
    27   16   17 ar
    28   16   31 1
    29   17   18 ar
    30   17   32 1
    31   18   19 ar
    32   18   22 1
    33   19   20 1
    34   20   21 2
    35   22   33 1
    36   22   34 1
@<TRIPOS>MOLECULE
ZINC40317118
   38    39     0     0     0
SMALL
USER_CHARGES

@<TRIPOS>ATOM
      1 C1         -1.2033    1.1326   -0.0132 C.3       1 <0>        -0.1855
      2 C2         -0.3360    0.2701    0.9059 C.3       1 <0>         0.1913
      3 H1          0.6079    0.0455    0.4093 H         1 <0>         0.0873
      4 C3         -0.0646    1.0166    2.1866 C.ar      1 <0>        -0.0864
      5 C4         -1.1179    1.4554    2.9671 C.ar      1 <0>        -0.0883
      6 C5         -0.8696    2.1401    4.1417 C.ar      1 <0>        -0.1113
      7 C6          0.4334    2.3862    4.5365 C.ar      1 <0>        -0.0289
      8 C7          1.4871    1.9468    3.7550 C.ar      1 <0>        -0.1097
      9 C8          1.2376    1.2573    2.5834 C.ar      1 <0>        -0.0922
     10 Cl1         0.7461    3.2466    6.0115 Cl        1 <0>        -0.0654
     11 N1         -1.0381   -0.9796    1.2085 N.pl3     1 <0>        -0.9957
     12 C9         -1.6016   -1.1987    2.5430 C.3       1 <0>         0.0839
     13 S1         -1.1947   -2.1447    0.0421 S.o2      1 <0>         2.6952
     14 O1         -2.4368   -2.7928    0.2797 O.2       1 <0>        -0.9512
     15 O2         -0.8848   -1.5227   -1.1974 O.2       1 <0>        -0.9600
     16 C10         0.0629   -3.3443    0.3319 C.ar      1 <0>        -0.7524
     17 C11        -0.2749   -4.6042    0.7862 C.ar      1 <0>         0.0181
     18 C12         0.7113   -5.5460    1.0143 C.ar      1 <0>        -0.1923
     19 C13         2.0388   -5.2305    0.7881 C.ar      1 <0>        -0.0185
     20 C14         2.3834   -3.9730    0.3335 C.ar      1 <0>        -0.2115
     21 C15         1.3945   -3.0260    0.0983 C.ar      1 <0>         0.3119
     22 N2          1.7391   -1.7548   -0.3666 N.pl3     1 <0>        -0.8765
     23 H2         -0.6809    2.0624   -0.2383 H         1 <0>         0.0766
     24 H3         -1.3996    0.5927   -0.9395 H         1 <0>         0.0851
     25 H4         -2.1472    1.3572    0.4835 H         1 <0>         0.0677
     26 H5         -2.1349    1.2635    2.6586 H         1 <0>         0.1377
     27 H6         -1.6925    2.4832    4.7512 H         1 <0>         0.1371
     28 H7          2.5044    2.1389    4.0624 H         1 <0>         0.1360
     29 H8          2.0601    0.9100    1.9756 H         1 <0>         0.1326
     30 H9         -2.5945   -0.7521    2.5959 H         1 <0>         0.0650
     31 H10        -1.6739   -2.2691    2.7356 H         1 <0>         0.0736
     32 H11        -0.9556   -0.7378    3.2902 H         1 <0>         0.0804
     33 H12        -1.3106   -4.8539    0.9638 H         1 <0>         0.1414
     34 H13         0.4445   -6.5302    1.3702 H         1 <0>         0.1309
     35 H14         2.8067   -5.9684    0.9676 H         1 <0>         0.1312
     36 H15         3.4202   -3.7272    0.1575 H         1 <0>         0.1307
     37 H16         1.0500   -1.1530   -0.6891 H         1 <0>         0.4055
     38 H17         2.6674   -1.4737   -0.3669 H         1 <0>         0.4070
@<TRIPOS>BOND
     1    1    2 1
     2    1   23 1
     3    1   24 1
     4    1   25 1
     5    2    3 1
     6    2    4 1
     7    2   11 1
     8    4    9 ar
     9    4    5 ar
    10    5    6 ar
    11    5   26 1
    12    6    7 ar
    13    6   27 1
    14    7    8 ar
    15    7   10 1
    16    8    9 ar
    17    8   28 1
    18    9   29 1
    19   11   12 1
    20   11   13 1
    21   12   30 1
    22   12   31 1
    23   12   32 1
    24   13   14 2
    25   13   15 2
    26   13   16 1
    27   16   21 ar
    28   16   17 ar
    29   17   18 ar
    30   17   33 1
    31   18   19 ar
    32   18   34 1
    33   19   20 ar
    34   19   35 1
    35   20   21 ar
    36   20   36 1
    37   21   22 1
    38   22   37 1
    39   22   38 1
@<TRIPOS>MOLECULE
ZINC33870514
   48    51     0     0     0
SMALL
USER_CHARGES

@<TRIPOS>ATOM
      1 C1         -0.0183    1.5028   -0.0000 C.3       1 <0>        -0.0951
      2 C2          0.0010   -0.0041   -0.0024 C.2       1 <0>         0.0608
      3 C3         -0.1898   -0.7973   -1.0893 C.2       1 <0>        -0.1134
      4 C4         -0.0817   -2.1852   -0.6038 C.2       1 <0>        -0.2032
      5 C5          0.1654   -2.0979    0.7366 C.2       1 <0>         0.0725
      6 N1          0.2184   -0.7967    1.0824 N.pl3     1 <0>        -0.4222
      7 C6          0.4705   -0.3035    2.4387 C.3       1 <0>         0.1705
      8 H1          0.6166   -1.1391    3.1232 H         1 <0>         0.1160
      9 C7          1.7060    0.6214    2.4512 C.3       1 <0>        -0.1327
     10 C8          1.3262    1.6672    3.5209 C.3       1 <0>        -0.0831
     11 C9         -0.1871    1.6971    3.5260 C.ar      1 <0>        -0.0835
     12 C10        -0.6801    0.5624    2.9051 C.ar      1 <0>        -0.1193
     13 C11        -2.0473    0.3737    2.7948 C.ar      1 <0>        -0.0848
     14 C12        -2.9222    1.3141    3.3035 C.ar      1 <0>        -0.1197
     15 C13        -2.4320    2.4470    3.9251 C.ar      1 <0>        -0.1057
     16 C14        -1.0642    2.6401    4.0343 C.ar      1 <0>        -0.1079
     17 C15         0.3541   -3.2638    1.6727 C.3       1 <0>        -0.0939
     18 C16        -0.2139   -3.4147   -1.4012 C.2       1 <0>         0.6014
     19 O1          0.7671   -3.9095   -1.9232 O.2       1 <0>        -0.5378
     20 N2         -1.4219   -3.9926   -1.5532 N.am      1 <0>        -0.8489
     21 C17        -0.4533   -0.3571   -2.4785 C.ar      1 <0>         0.0263
     22 C18        -1.6310    0.3287   -2.7814 C.ar      1 <0>        -0.1113
     23 C19        -1.8761    0.7363   -4.0673 C.ar      1 <0>        -0.0686
     24 C20        -0.9460    0.4653   -5.0754 C.ar      1 <0>        -0.0340
     25 C21         0.2334   -0.2212   -4.7708 C.ar      1 <0>        -0.0660
     26 C22         0.4789   -0.6233   -3.4831 C.ar      1 <0>        -0.1028
     27 C23        -1.2012    0.8901   -6.4189 C.1       1 <0>         0.2526
     28 N3         -1.4036    1.2271   -7.4847 N.1       1 <0>        -0.4170
     29 H2          0.9864    1.8793   -0.1919 H         1 <0>         0.0736
     30 H3         -0.6944    1.8587   -0.7774 H         1 <0>         0.0809
     31 H4         -0.3610    1.8602    0.9710 H         1 <0>         0.0751
     32 H5          2.5991    0.0710    2.7473 H         1 <0>         0.0893
     33 H6          1.8457    1.0945    1.4792 H         1 <0>         0.0903
     34 H7          1.7018    1.3626    4.4978 H         1 <0>         0.0884
     35 H8          1.7230    2.6458    3.2507 H         1 <0>         0.0847
     36 H9         -2.4311   -0.5113    2.3091 H         1 <0>         0.1189
     37 H10        -3.9881    1.1643    3.2151 H         1 <0>         0.1270
     38 H11        -3.1146    3.1832    4.3234 H         1 <0>         0.1274
     39 H12        -0.6808    3.5251    4.5202 H         1 <0>         0.1248
     40 H13         1.4182   -3.4721    1.7837 H         1 <0>         0.0796
     41 H14        -0.0721   -3.0209    2.6460 H         1 <0>         0.0704
     42 H15        -0.1474   -4.1416    1.2653 H         1 <0>         0.0818
     43 H16        -2.2042   -3.5980   -1.1370 H         1 <0>         0.4020
     44 H17        -1.5091   -4.8032   -2.0789 H         1 <0>         0.4018
     45 H18        -2.3493    0.5379   -2.0026 H         1 <0>         0.1327
     46 H19        -2.7876    1.2662   -4.3016 H         1 <0>         0.1331
     47 H20         0.9526   -0.4311   -5.5487 H         1 <0>         0.1335
     48 H21         1.3916   -1.1500   -3.2468 H         1 <0>         0.1355
@<TRIPOS>BOND
     1    1    2 1
     2    1   29 1
     3    1   30 1
     4    1   31 1
     5    2    6 1
     6    2    3 2
     7    3    4 1
     8    3   21 1
     9    4    5 2
    10    4   18 1
    11    5    6 1
    12    5   17 1
    13    6    7 1
    14    7    8 1
    15    7   12 1
    16    7    9 1
    17    9   10 1
    18    9   32 1
    19    9   33 1
    20   10   11 1
    21   10   34 1
    22   10   35 1
    23   11   16 ar
    24   11   12 ar
    25   12   13 ar
    26   13   14 ar
    27   13   36 1
    28   14   15 ar
    29   14   37 1
    30   15   16 ar
    31   15   38 1
    32   16   39 1
    33   17   40 1
    34   17   41 1
    35   17   42 1
    36   18   19 2
    37   18   20 am
    38   20   43 1
    39   20   44 1
    40   21   26 ar
    41   21   22 ar
    42   22   23 ar
    43   22   45 1
    44   23   24 ar
    45   23   46 1
    46   24   25 ar
    47   24   27 1
    48   25   26 ar
    49   25   47 1
    50   26   48 1
    51   27   28 3
@<TRIPOS>MOLECULE
ZINC43669156
   34    35     0     0     0
SMALL
USER_CHARGES

@<TRIPOS>ATOM
      1 C1         -0.0184    1.5028    0.0103 C.3       1 <0>        -0.0806
      2 C2          0.0021   -0.0041    0.0020 C.2       1 <0>         0.1345
      3 C3          0.0080   -0.8150   -1.1364 C.2       1 <0>        -0.3182
      4 C4          0.0279   -2.1130   -0.7241 C.2       1 <0>         0.4086
      5 N1          0.0343   -2.1092    0.6340 N.pl3     1 <0>        -0.3866
      6 N2          0.0230   -0.7746    1.0591 N.2       1 <0>        -0.2882
      7 C5          0.0545   -3.2906    1.5001 C.3       1 <0>         0.2117
      8 H1          0.0638   -4.1912    0.8860 H         1 <0>         0.1009
      9 C6          1.3075   -3.2586    2.3773 C.3       1 <0>        -0.1579
     10 C7         -1.1720   -3.2924    2.3758 C.ar      1 <0>        -0.0721
     11 C8         -1.4033   -2.2403    3.2429 C.ar      1 <0>        -0.1171
     12 C9         -2.5274   -2.2389    4.0476 C.ar      1 <0>        -0.0827
     13 C10        -3.4225   -3.2897    3.9876 C.ar      1 <0>        -0.1982
     14 C11        -3.1928   -4.3462    3.1187 C.ar      1 <0>         0.1237
     15 C12        -2.0670   -4.3423    2.3077 C.ar      1 <0>        -0.1384
     16 O1         -4.0718   -5.3809    3.0579 O.3       1 <0>        -0.3181
     17 C13        -5.2117   -5.3152    3.9173 C.3       1 <0>         0.0269
     18 N3          0.0397   -3.2378   -1.5448 N.pl3     1 <0>        -0.8498
     19 I1         -0.0107   -0.1520   -3.1236 I         1 <0>        -0.0192
     20 H2          1.0042    1.8801    0.0026 H         1 <0>         0.0818
     21 H3         -0.5455    1.8639   -0.8728 H         1 <0>         0.0796
     22 H4         -0.5286    1.8543    0.9071 H         1 <0>         0.0775
     23 H5          2.1946   -3.2573    1.7439 H         1 <0>         0.0659
     24 H6          1.2982   -2.3581    2.9914 H         1 <0>         0.0772
     25 H7          1.3225   -4.1376    3.0217 H         1 <0>         0.0792
     26 H8         -0.7044   -1.4184    3.2917 H         1 <0>         0.1375
     27 H9         -2.7058   -1.4161    4.7239 H         1 <0>         0.1280
     28 H10        -4.3002   -3.2885    4.6169 H         1 <0>         0.1293
     29 H11        -1.8883   -5.1615    1.6270 H         1 <0>         0.1292
     30 H12        -5.8298   -6.2007    3.7692 H         1 <0>         0.1019
     31 H13        -4.8820   -5.2717    4.9553 H         1 <0>         0.0566
     32 H14        -5.7925   -4.4232    3.6828 H         1 <0>         0.0560
     33 H15         0.0341   -3.1346   -2.5093 H         1 <0>         0.4186
     34 H16         0.0535   -4.1246   -1.1520 H         1 <0>         0.4026
@<TRIPOS>BOND
     1    1    2 1
     2    1   20 1
     3    1   21 1
     4    1   22 1
     5    2    6 2
     6    2    3 1
     7    3    4 2
     8    3   19 1
     9    4    5 1
    10    4   18 1
    11    5    6 1
    12    5    7 1
    13    7    8 1
    14    7    9 1
    15    7   10 1
    16    9   23 1
    17    9   24 1
    18    9   25 1
    19   10   15 ar
    20   10   11 ar
    21   11   12 ar
    22   11   26 1
    23   12   13 ar
    24   12   27 1
    25   13   14 ar
    26   13   28 1
    27   14   15 ar
    28   14   16 1
    29   15   29 1
    30   16   17 1
    31   17   30 1
    32   17   31 1
    33   17   32 1
    34   18   33 1
    35   18   34 1
@<TRIPOS>MOLECULE
ZINC05102120
   30    32     0     0     0
SMALL
USER_CHARGES
5-[[5-(4-chlorophenyl)sulfanyl-2-furyl]methylene]-2-imino-thiazolidin-4-one
@<TRIPOS>ATOM
      1 C1          4.3308   -2.6578    1.0373 C.ar      1 <0>        -0.0392
      2 C2          3.0056   -2.9827    0.8258 C.ar      1 <0>        -0.1193
      3 C3          2.5095   -3.0669   -0.4636 C.ar      1 <0>        -0.0003
      4 C4          3.3385   -2.8215   -1.5444 C.ar      1 <0>        -0.1174
      5 C5          4.6636   -2.4919   -1.3390 C.ar      1 <0>        -0.0406
      6 C6          5.1644   -2.4062   -0.0457 C.ar      1 <0>        -0.1627
      7 S1          6.8549   -1.9864    0.2204 S.3       1 <0>         0.1163
      8 C7          6.7444   -0.2285    0.1751 C.2       1 <0>        -0.0075
      9 C8          7.8000    0.6354    0.2307 C.2       1 <0>        -0.1880
     10 C9          7.2786    1.9298    0.1673 C.2       1 <0>        -0.1098
     11 C10         5.9031    1.8006    0.0741 C.2       1 <0>        -0.0389
     12 O1          5.6074    0.4811    0.0861 O.3       1 <0>        -0.1408
     13 C11         4.9761    2.8562   -0.0118 C.2       1 <0>         0.1014
     14 C12         3.6251    2.5896    0.0087 C.2       1 <0>        -0.2171
     15 C13         2.5299    3.4953    0.0357 C.2       1 <0>         0.5638
     16 O2          2.7174    4.6995    0.0442 O.2       1 <0>        -0.4934
     17 N1          1.3037    3.0023    0.0520 N.am      1 <0>        -0.6559
     18 C14         1.1085    1.6337    0.0426 C.2       1 <0>         0.4191
     19 N2         -0.0131    0.9655    0.0554 N.2       1 <0>        -0.6469
     20 S2          2.7835    1.0133    0.0162 S.3       1 <0>        -0.0514
     21 Cl1         0.8443   -3.4816   -0.7257 Cl        1 <0>        -0.0564
     22 H1          4.7183   -2.5959    2.0435 H         1 <0>         0.1434
     23 H2          2.3564   -3.1754    1.6672 H         1 <0>         0.1424
     24 H3          2.9487   -2.8883   -2.5494 H         1 <0>         0.1424
     25 H4          5.3102   -2.3012   -2.1828 H         1 <0>         0.1423
     26 H5          8.8434    0.3680    0.3093 H         1 <0>         0.1642
     27 H6          7.8396    2.8525    0.1868 H         1 <0>         0.1683
     28 H7          5.3243    3.8753   -0.0939 H         1 <0>         0.1841
     29 H8          0.5407    3.6008    0.0702 H         1 <0>         0.4235
     30 H9          0.0000   -0.0044    0.0461 H         1 <0>         0.3745
@<TRIPOS>BOND
     1    1    6 ar
     2    1    2 ar
     3    1   22 1
     4    2    3 ar
     5    2   23 1
     6    3    4 ar
     7    3   21 1
     8    4    5 ar
     9    4   24 1
    10    5    6 ar
    11    5   25 1
    12    6    7 1
    13    7    8 1
    14    8   12 1
    15    8    9 2
    16    9   10 1
    17    9   26 1
    18   10   11 2
    19   10   27 1
    20   11   12 1
    21   11   13 1
    22   13   14 2
    23   13   28 1
    24   14   20 1
    25   14   15 1
    26   15   16 2
    27   15   17 am
    28   17   18 1
    29   17   29 1
    30   18   19 2
    31   18   20 1
    32   19   30 1
@<TRIPOS>MOLECULE
ZINC36288067
   33    35     0     0     0
SMALL
USER_CHARGES

@<TRIPOS>ATOM
      1 C1         -0.0168    1.3841    0.0097 C.ar      1 <0>        -0.1023
      2 C2          1.1657    2.0926    0.0022 C.ar      1 <0>        -0.1592
      3 C3          2.3902    1.4224   -0.0135 C.ar      1 <0>         0.1949
      4 C4          2.4014    0.0365   -0.0210 C.ar      1 <0>        -0.1581
      5 C5          1.2175   -0.6750   -0.0127 C.ar      1 <0>        -0.0645
      6 C6          0.0021   -0.0041    0.0020 C.ar      1 <0>         0.0797
      7 N1         -1.1987   -0.7239    0.0096 N.pl3     1 <0>        -1.0464
      8 S1         -2.4399   -0.2743   -0.9903 S.o2      1 <0>         2.6934
      9 O1         -3.4938   -1.2020   -0.7717 O.2       1 <0>        -0.9455
     10 O2         -2.6105    1.1262   -0.8214 O.2       1 <0>        -0.9401
     11 C7         -1.8894   -0.5185   -2.6462 C.ar      1 <0>        -0.6652
     12 C8         -1.2438    0.5034   -3.3174 C.ar      1 <0>         0.0032
     13 C9         -0.8120    0.3133   -4.6164 C.ar      1 <0>        -0.1181
     14 C10        -1.0252   -0.9002   -5.2457 C.ar      1 <0>         0.0216
     15 C11        -1.6712   -1.9236   -4.5734 C.ar      1 <0>        -0.0558
     16 C12        -2.0982   -1.7333   -3.2713 C.ar      1 <0>         0.0028
     17 Cl1        -1.9400   -3.4467   -5.3618 Cl        1 <0>        -0.0331
     18 Cl2        -0.4834   -1.1393   -6.8776 Cl        1 <0>        -0.0298
     19 C13         3.8388   -0.4332   -0.0378 C.3       1 <0>        -0.0851
     20 C14         4.6692    0.8605   -0.0391 C.3       1 <0>         0.1170
     21 N2          3.6871    1.9478   -0.0236 N.pl3     1 <0>        -0.7449
     22 H1         -0.9599    1.9101    0.0260 H         1 <0>         0.1591
     23 H2          1.1447    3.1724    0.0081 H         1 <0>         0.1272
     24 H3          1.2372   -1.7548   -0.0190 H         1 <0>         0.1270
     25 H4         -1.3037   -1.4859    0.6006 H         1 <0>         0.4270
     26 H5         -1.0772    1.4508   -2.8265 H         1 <0>         0.1574
     27 H6         -0.3084    1.1122   -5.1404 H         1 <0>         0.1549
     28 H7         -2.5987   -2.5325   -2.7449 H         1 <0>         0.1605
     29 H8          4.0562   -1.0236    0.8523 H         1 <0>         0.0860
     30 H9          4.0385   -1.0140   -0.9383 H         1 <0>         0.0853
     31 H10         5.2985    0.9067    0.8497 H         1 <0>         0.0686
     32 H11         5.2808    0.9163   -0.9397 H         1 <0>         0.0685
     33 H12         3.9042    2.8932   -0.0210 H         1 <0>         0.4139
@<TRIPOS>BOND
     1    1    6 ar
     2    1    2 ar
     3    1   22 1
     4    2    3 ar
     5    2   23 1
     6    3   21 1
     7    3    4 ar
     8    4    5 ar
     9    4   19 1
    10    5    6 ar
    11    5   24 1
    12    6    7 1
    13    7    8 1
    14    7   25 1
    15    8    9 2
    16    8   10 2
    17    8   11 1
    18   11   16 ar
    19   11   12 ar
    20   12   13 ar
    21   12   26 1
    22   13   14 ar
    23   13   27 1
    24   14   15 ar
    25   14   18 1
    26   15   16 ar
    27   15   17 1
    28   16   28 1
    29   19   20 1
    30   19   29 1
    31   19   30 1
    32   20   21 1
    33   20   31 1
    34   20   32 1
    35   21   33 1
@<TRIPOS>MOLECULE
ZINC40438788
   31    33     0     0     0
SMALL
USER_CHARGES

@<TRIPOS>ATOM
      1 C1         -2.3414   -4.2125    0.2530 C.ar      1 <0>        -0.0068
      2 C2         -3.0333   -5.4086    0.2872 C.ar      1 <0>        -0.1113
      3 C3         -4.4046   -5.4195    0.1064 C.ar      1 <0>        -0.0369
      4 C4         -5.0829   -4.2332   -0.1085 C.ar      1 <0>        -0.1131
      5 C5         -4.3902   -3.0377   -0.1426 C.ar      1 <0>        -0.0120
      6 C6         -3.0196   -3.0273    0.0381 C.ar      1 <0>        -0.6638
      7 S1         -2.1371   -1.5029   -0.0054 S.o2      1 <0>         2.6897
      8 O1         -3.0368   -0.4997    0.4455 O.2       1 <0>        -0.9505
      9 O2         -0.8846   -1.7407    0.6222 O.2       1 <0>        -0.9435
     10 N1         -1.8142   -1.1693   -1.5950 N.pl3     1 <0>        -1.0558
     11 C7         -0.9823   -2.0188   -2.3334 C.ar      1 <0>         0.0909
     12 C8          0.3960   -1.9949   -2.1249 C.ar      1 <0>        -0.0842
     13 C9          1.2279   -2.8237   -2.8431 C.ar      1 <0>        -0.1194
     14 C10         0.6956   -3.6957   -3.7873 C.ar      1 <0>         0.1042
     15 C11        -0.6940   -3.7233   -4.0004 C.ar      1 <0>        -0.1047
     16 C12        -1.5305   -2.8825   -3.2627 C.ar      1 <0>        -0.0578
     17 C13        -0.9251   -4.7296   -5.0396 C.2       1 <0>        -0.2023
     18 C14         0.2747   -5.2275   -5.3785 C.2       1 <0>         0.0557
     19 N2          1.2558   -4.6227   -4.6416 N.pl3     1 <0>        -0.5955
     20 H1          2.2037   -4.8168   -4.7095 H         1 <0>         0.4183
     21 Br1        -5.3517   -7.0555    0.1526 Br        1 <0>        -0.0328
     22 H2         -1.2713   -4.2035    0.3985 H         1 <0>         0.1507
     23 H3         -2.5032   -6.3345    0.4547 H         1 <0>         0.1438
     24 H4         -6.1536   -4.2413   -0.2500 H         1 <0>         0.1447
     25 H5         -4.9196   -2.1115   -0.3104 H         1 <0>         0.1491
     26 H6         -2.2016   -0.3851   -2.0144 H         1 <0>         0.4253
     27 H7          0.8149   -1.3197   -1.3934 H         1 <0>         0.1393
     28 H8          2.2942   -2.7967   -2.6738 H         1 <0>         0.1287
     29 H9         -2.5987   -2.9041   -3.4206 H         1 <0>         0.1288
     30 H10        -1.8800   -5.0168   -5.4544 H         1 <0>         0.1482
     31 H11         0.4408   -5.9921   -6.1229 H         1 <0>         0.1729
@<TRIPOS>BOND
     1    1    6 ar
     2    1    2 ar
     3    1   22 1
     4    2    3 ar
     5    2   23 1
     6    3    4 ar
     7    3   21 1
     8    4    5 ar
     9    4   24 1
    10    5    6 ar
    11    5   25 1
    12    6    7 1
    13    7    8 2
    14    7    9 2
    15    7   10 1
    16   10   11 1
    17   10   26 1
    18   11   16 ar
    19   11   12 ar
    20   12   13 ar
    21   12   27 1
    22   13   14 ar
    23   13   28 1
    24   14   19 1
    25   14   15 ar
    26   15   16 ar
    27   15   17 1
    28   16   29 1
    29   17   18 2
    30   17   30 1
    31   18   19 1
    32   18   31 1
    33   19   20 1
@<TRIPOS>MOLECULE
ZINC50833365
   29    31     0     0     0
SMALL
USER_CHARGES

@<TRIPOS>ATOM
      1 C1         -0.0164    1.3567    0.0095 C.ar      1 <0>        -0.1256
      2 C2          1.1684    2.0908    0.0021 C.ar      1 <0>        -0.0928
      3 C3          2.3782    1.4678   -0.0127 C.ar      1 <0>        -0.1219
      4 C4          2.4375    0.0634   -0.0208 C.ar      1 <0>         0.0071
      5 C5          1.2325   -0.6834   -0.0133 C.ar      1 <0>        -0.0819
      6 C6          0.0021   -0.0041    0.0020 C.ar      1 <0>        -0.0899
      7 C7          1.2878   -2.0876   -0.0202 C.ar      1 <0>        -0.0424
      8 C8          2.4927   -2.7184   -0.0341 C.ar      1 <0>        -0.1950
      9 C9          3.6856   -1.9898   -0.0411 C.ar      1 <0>         0.1681
     10 C10         3.6687   -0.6133   -0.0356 C.ar      1 <0>        -0.1336
     11 Br1         5.2902    0.3595   -0.0460 Br        1 <0>        -0.0288
     12 O1          4.8749   -2.6474   -0.0541 O.3       1 <0>        -0.2949
     13 C11         4.8265   -4.0756   -0.0598 C.3       1 <0>         0.1494
     14 C12         6.2295   -4.6257   -0.0741 C.2       1 <0>        -0.1059
     15 C13         6.8925   -4.8790   -1.2411 C.2       1 <0>         0.1166
     16 S1          8.3680   -5.4609   -0.6843 S.3       1 <0>         0.2743
     17 N1          8.0821   -5.3583    0.9635 N.2       1 <0>        -0.2346
     18 N2          6.8847   -4.8832    1.0356 N.2       1 <0>        -0.1807
     19 N3          6.4585   -4.7015   -2.5523 N.pl3     1 <0>        -0.7905
     20 H1         -0.9634    1.8756    0.0259 H         1 <0>         0.1270
     21 H2          1.1257    3.1699    0.0079 H         1 <0>         0.1281
     22 H3          3.2882    2.0495   -0.0187 H         1 <0>         0.1352
     23 H4         -0.9242   -0.5593    0.0082 H         1 <0>         0.1314
     24 H5          0.3751   -2.6649   -0.0142 H         1 <0>         0.1396
     25 H6          2.5283   -3.7978   -0.0394 H         1 <0>         0.1394
     26 H7          4.3083   -4.4252    0.8332 H         1 <0>         0.0894
     27 H8          4.2932   -4.4175   -0.9467 H         1 <0>         0.0772
     28 H9          5.5703   -4.3525   -2.7261 H         1 <0>         0.4155
     29 H10         7.0443   -4.9269   -3.2918 H         1 <0>         0.4201
@<TRIPOS>BOND
     1    1    6 ar
     2    1    2 ar
     3    1   20 1
     4    2    3 ar
     5    2   21 1
     6    3    4 ar
     7    3   22 1
     8    4   10 ar
     9    4    5 ar
    10    5    6 ar
    11    5    7 ar
    12    6   23 1
    13    7    8 ar
    14    7   24 1
    15    8    9 ar
    16    8   25 1
    17    9   10 ar
    18    9   12 1
    19   10   11 1
    20   12   13 1
    21   13   14 1
    22   13   26 1
    23   13   27 1
    24   14   18 1
    25   14   15 2
    26   15   16 1
    27   15   19 1
    28   16   17 1
    29   17   18 2
    30   19   28 1
    31   19   29 1
@<TRIPOS>MOLECULE
ZINC62635751
   36    38     0     0     0
SMALL
USER_CHARGES

@<TRIPOS>ATOM
      1 C1          1.5471    3.1280    1.6532 C.ar      1 <0>        -0.1046
      2 C2          2.9087    3.3718    1.6901 C.ar      1 <0>        -0.1224
      3 C3          3.8002    2.3769    1.3459 C.ar      1 <0>        -0.0918
      4 C4          3.3259    1.1221    0.9598 C.ar      1 <0>        -0.0652
      5 C5          1.9512    0.8829    0.9247 C.ar      1 <0>        -0.0572
      6 C6          1.0704    1.8865    1.2713 C.ar      1 <0>        -0.1188
      7 C7          4.2761    0.0508    0.5889 C.2       1 <0>         0.1499
      8 C8          5.1012    0.1840   -0.5433 C.2       1 <0>        -0.2306
      9 C9          5.9661   -0.8047   -0.8697 C.2       1 <0>         0.1729
     10 N1          6.0601   -1.9353   -0.1258 N.am      1 <0>        -0.6007
     11 H1          6.6900   -2.6250   -0.3873 H         1 <0>         0.4239
     12 C10         5.2975   -2.1195    0.9679 C.2       1 <0>         0.5377
     13 O1          5.4019   -3.1446    1.6191 O.2       1 <0>        -0.5449
     14 C11         4.3768   -1.1181    1.3641 C.2       1 <0>        -0.2802
     15 C12         3.5409   -1.2995    2.5567 C.2       1 <0>         0.5768
     16 O2          2.8359   -0.3889    2.9499 O.2       1 <0>        -0.5075
     17 N2          3.5542   -2.4747    3.2165 N.am      1 <0>        -0.6638
     18 C13         2.6773   -2.6866    4.2850 C.ar      1 <0>         0.1681
     19 C14         1.4137   -2.1093    4.2734 C.ar      1 <0>        -0.1198
     20 C15         0.5497   -2.3201    5.3298 C.ar      1 <0>        -0.0865
     21 C16         0.9406   -3.1049    6.3992 C.ar      1 <0>        -0.1302
     22 C17         2.1984   -3.6817    6.4144 C.ar      1 <0>        -0.0137
     23 C18         3.0657   -3.4790    5.3570 C.ar      1 <0>        -0.1414
     24 Cl1         2.6852   -4.6658    7.7591 Cl        1 <0>        -0.0675
     25 H2          0.8535    3.9090    1.9280 H         1 <0>         0.1223
     26 H3          3.2743    4.3432    1.9888 H         1 <0>         0.1244
     27 H4          4.8626    2.5686    1.3748 H         1 <0>         0.1219
     28 H5          1.5779   -0.0857    0.6265 H         1 <0>         0.1155
     29 H6          0.0065    1.7026    1.2449 H         1 <0>         0.1234
     30 H7          5.0442    1.0745   -1.1516 H         1 <0>         0.1613
     31 H8          6.5943   -0.6913   -1.7409 H         1 <0>         0.1792
     32 H9          4.1719   -3.1735    2.9501 H         1 <0>         0.4247
     33 H10         1.1075   -1.4959    3.4390 H         1 <0>         0.1400
     34 H11        -0.4325   -1.8710    5.3210 H         1 <0>         0.1353
     35 H12         0.2630   -3.2679    7.2242 H         1 <0>         0.1340
     36 H13         4.0457   -3.9328    5.3668 H         1 <0>         0.1354
@<TRIPOS>BOND
     1    1    6 ar
     2    1    2 ar
     3    1   25 1
     4    2    3 ar
     5    2   26 1
     6    3    4 ar
     7    3   27 1
     8    4    5 ar
     9    4    7 1
    10    5    6 ar
    11    5   28 1
    12    6   29 1
    13    7   14 2
    14    7    8 1
    15    8    9 2
    16    8   30 1
    17    9   10 1
    18    9   31 1
    19   10   11 1
    20   10   12 am
    21   12   13 2
    22   12   14 1
    23   14   15 1
    24   15   16 2
    25   15   17 am
    26   17   18 1
    27   17   32 1
    28   18   23 ar
    29   18   19 ar
    30   19   20 ar
    31   19   33 1
    32   20   21 ar
    33   20   34 1
    34   21   22 ar
    35   21   35 1
    36   22   23 ar
    37   22   24 1
    38   23   36 1
@<TRIPOS>MOLECULE
ZINC09101263
   56    59     0     0     0
SMALL
USER_CHARGES
2-[[4-(4-chlorophenyl)-5-(1-dimethylaminoethyl)-1,2,4-triazol-3-yl]sulfanyl]-1-indan-5-yl-ethanone
@<TRIPOS>ATOM
      1 C1          4.0338    1.2994    1.3634 C.3       1 <0>        -0.1772
      2 C2          3.5408    0.8951   -0.0274 C.3       1 <0>         0.1357
      3 H1          3.9781   -0.0646   -0.3030 H         1 <0>         0.1490
      4 C3          2.0385    0.7771   -0.0132 C.2       1 <0>         0.1189
      5 N1          1.1864    1.7629    0.0002 N.2       1 <0>        -0.2488
      6 N2         -0.0157    1.3088    0.0092 N.2       1 <0>        -0.2769
      7 C4          0.0021   -0.0041    0.0020 C.2       1 <0>         0.1866
      8 N3          1.3154   -0.3861   -0.0126 N.pl3     1 <0>        -0.3956
      9 C5          1.8171   -1.6961   -0.0248 C.ar      1 <0>         0.0741
     10 C6          2.5554   -2.1678    1.0519 C.ar      1 <0>        -0.0879
     11 C7          3.0431   -3.4600    1.0403 C.ar      1 <0>        -0.0926
     12 C8          2.8066   -4.2802   -0.0489 C.ar      1 <0>        -0.0101
     13 C9          2.0757   -3.8103   -1.1259 C.ar      1 <0>        -0.0899
     14 C10         1.5808   -2.5208   -1.1161 C.ar      1 <0>        -0.0792
     15 Cl1         3.4274   -5.9013   -0.0640 Cl        1 <0>        -0.0324
     16 S1         -1.3999   -1.0713    0.0092 S.3       1 <0>         0.1003
     17 C11        -2.7296    0.1566    0.0287 C.3       1 <0>        -0.1634
     18 C12        -4.0625   -0.5465    0.0373 C.2       1 <0>         0.4196
     19 O1         -4.1089   -1.7581    0.0308 O.2       1 <0>        -0.4330
     20 C13        -5.3078    0.2375    0.0535 C.ar      1 <0>        -0.1729
     21 C14        -5.2596    1.6354    0.0611 C.ar      1 <0>        -0.0707
     22 C15        -6.4309    2.3598    0.0763 C.ar      1 <0>        -0.1192
     23 C16        -7.6577    1.7124    0.0842 C.ar      1 <0>        -0.0526
     24 C17        -7.7134    0.3293    0.0769 C.ar      1 <0>        -0.1069
     25 C18        -6.5461   -0.4095    0.0558 C.ar      1 <0>        -0.0398
     26 C19        -9.1578   -0.1243    0.0884 C.3       1 <0>        -0.0858
     27 C20        -9.9737    1.1144   -0.3378 C.3       1 <0>        -0.1220
     28 C21        -9.0618    2.2795    0.1011 C.3       1 <0>        -0.0919
     29 C22         3.4913    3.2498   -0.5891 C.3       1 <0>        -0.0651
     30 C23         5.3957    1.8943   -1.2205 C.3       1 <0>        -0.0455
     31 H2          3.7356    0.5425    2.0889 H         1 <0>         0.1044
     32 H3          5.1204    1.3848    1.3532 H         1 <0>         0.0979
     33 H4          3.5966    2.2591    1.6391 H         1 <0>         0.0963
     34 H5          2.7443   -1.5265    1.9001 H         1 <0>         0.1421
     35 H6          3.6135   -3.8290    1.8799 H         1 <0>         0.1545
     36 H7          1.8924   -4.4521   -1.9749 H         1 <0>         0.1554
     37 H8          1.0107   -2.1544   -1.9570 H         1 <0>         0.1461
     38 H9         -2.6470    0.7244    0.8477 H         1 <0>         0.1212
     39 H10        -2.6563    0.7856   -0.8584 H         1 <0>         0.1379
     40 H11        -4.3073    2.1448    0.0547 H         1 <0>         0.1338
     41 H12        -6.3939    3.4391    0.0824 H         1 <0>         0.1315
     42 H13        -6.5908   -1.4886    0.0455 H         1 <0>         0.1351
     43 H14        -9.3047   -0.9371   -0.6229 H         1 <0>         0.0804
     44 H15        -9.4468   -0.4410    1.0906 H         1 <0>         0.0857
     45 H16       -10.1247    1.1261   -1.4172 H         1 <0>         0.0760
     46 H17       -10.9277    1.1497    0.1883 H         1 <0>         0.0829
     47 H18        -9.3250    2.6075    1.1067 H         1 <0>         0.0892
     48 H19        -9.1432    3.1088   -0.6015 H         1 <0>         0.0829
     49 H20         3.9323    3.4980    0.3763 H         1 <0>         0.1259
     50 H21         3.8020    3.9859   -1.3306 H         1 <0>         0.1241
     51 H22         2.4046    3.2557   -0.5045 H         1 <0>         0.1487
     52 H23         5.6935    0.9149   -1.5949 H         1 <0>         0.1221
     53 H24         5.6660    2.6592   -1.9486 H         1 <0>         0.1305
     54 H25         5.9057    2.0935   -0.2780 H         1 <0>         0.1278
     55 N4          3.9300    1.9090   -1.0300 N.4       1 <0>        -0.3897
     56 H26         3.4754    1.6863   -1.9233 H         1 <0>         0.4324
@<TRIPOS>BOND
     1    1    2 1
     2    1   31 1
     3    1   32 1
     4    1   33 1
     5    2    3 1
     6    2    4 1
     7    2   55 1
     8    4    8 1
     9    4    5 2
    10    5    6 1
    11    6    7 2
    12    7    8 1
    13    7   16 1
    14    8    9 1
    15    9   14 ar
    16    9   10 ar
    17   10   11 ar
    18   10   34 1
    19   11   12 ar
    20   11   35 1
    21   12   13 ar
    22   12   15 1
    23   13   14 ar
    24   13   36 1
    25   14   37 1
    26   16   17 1
    27   17   18 1
    28   17   38 1
    29   17   39 1
    30   18   19 2
    31   18   20 1
    32   20   25 ar
    33   20   21 ar
    34   21   22 ar
    35   21   40 1
    36   22   23 ar
    37   22   41 1
    38   23   28 1
    39   23   24 ar
    40   24   25 ar
    41   24   26 1
    42   25   42 1
    43   26   27 1
    44   26   43 1
    45   26   44 1
    46   27   28 1
    47   27   45 1
    48   27   46 1
    49   28   47 1
    50   28   48 1
    51   29   49 1
    52   29   50 1
    53   29   51 1
    54   29   55 1
    55   30   52 1
    56   30   53 1
    57   30   54 1
    58   30   55 1
    59   55   56 1
@<TRIPOS>MOLECULE
ZINC13561760
   64    68     0     0     0
SMALL
USER_CHARGES
3-[(R)-(4-benzyl-1-piperidyl)-(1-phenethyltetrazol-5-yl)methyl]pyridine
@<TRIPOS>ATOM
      1 C1          2.3990    1.7085   -9.1272 C.ar      1 <0>        -0.1063
      2 C2          1.6012    1.1959   -8.1214 C.ar      1 <0>        -0.1151
      3 C3          2.0341    1.2330   -6.8092 C.ar      1 <0>        -0.1155
      4 C4          3.2646    1.7831   -6.5026 C.ar      1 <0>        -0.1039
      5 C5          4.0600    2.3009   -7.5077 C.ar      1 <0>        -0.1060
      6 C6          3.6296    2.2587   -8.8206 C.ar      1 <0>        -0.1107
      7 C7          3.7364    1.8240   -5.0719 C.3       1 <0>        -0.0898
      8 C8          4.5153    0.5458   -4.7551 C.3       1 <0>         0.1007
      9 N1          4.9739    0.5855   -3.3643 N.pl3     1 <0>        -0.2749
     10 C9          4.3069    0.1265   -2.2891 C.2       1 <0>         0.1192
     11 N2          5.0707    0.3518   -1.2481 N.2       1 <0>        -0.2779
     12 N3          6.1483    0.9242   -1.6616 N.2       1 <0>        -0.0446
     13 N4          6.0918    1.0698   -2.9395 N.2       1 <0>        -0.0482
     14 C10         2.9484   -0.5258   -2.2840 C.3       1 <0>         0.1937
     15 H1          2.4517   -0.3384   -3.2360 H         1 <0>         0.1640
     16 C11         3.1050   -2.0111   -2.0831 C.ar      1 <0>        -0.2110
     17 C12         3.0398   -2.8767   -3.1645 C.ar      1 <0>        -0.0367
     18 C13         3.1894   -4.2352   -2.9323 C.ar      1 <0>        -0.1562
     19 C14         3.3971   -4.6786   -1.6397 C.ar      1 <0>         0.1400
     20 N5          3.4535   -3.8264   -0.6351 N.ar      1 <0>        -0.4617
     21 C15         3.3212   -2.5272   -0.8196 C.ar      1 <0>         0.1277
     22 C16         0.7700   -0.4922   -1.2284 C.3       1 <0>        -0.0024
     23 C17         0.0021   -0.0041    0.0020 C.3       1 <0>        -0.1424
     24 C18        -0.0187    1.5270    0.0104 C.3       1 <0>        -0.0936
     25 C19         1.4207    2.0492   -0.0005 C.3       1 <0>        -0.1430
     26 C20         2.1475    1.5015   -1.2309 C.3       1 <0>        -0.0058
     27 C21        -0.7325    2.0217    1.2700 C.3       1 <0>        -0.0744
     28 C22        -0.8610    3.5223    1.2180 C.ar      1 <0>        -0.0953
     29 C23         0.1325    4.3201    1.7540 C.ar      1 <0>        -0.1209
     30 C24         0.0166    5.6966    1.7024 C.ar      1 <0>        -0.1159
     31 C25        -1.0972    6.2753    1.1232 C.ar      1 <0>        -0.1160
     32 C26        -2.0929    5.4774    0.5914 C.ar      1 <0>        -0.1145
     33 C27        -1.9751    4.1009    0.6392 C.ar      1 <0>        -0.1158
     34 H2          2.0611    1.6789  -10.1526 H         1 <0>         0.1292
     35 H3          0.6397    0.7661   -8.3610 H         1 <0>         0.1277
     36 H4          1.4107    0.8325   -6.0234 H         1 <0>         0.1175
     37 H5          5.0195    2.7347   -7.2677 H         1 <0>         0.1271
     38 H6          4.2530    2.6588   -9.6065 H         1 <0>         0.1301
     39 H7          2.8756    1.8990   -4.4075 H         1 <0>         0.0763
     40 H8          4.3835    2.6891   -4.9273 H         1 <0>         0.0968
     41 H9          5.3761    0.4707   -5.4195 H         1 <0>         0.1328
     42 H10         3.8682   -0.3193   -4.8997 H         1 <0>         0.1146
     43 H11         2.8760   -2.5014   -4.1639 H         1 <0>         0.1471
     44 H12         3.1445   -4.9381   -3.7510 H         1 <0>         0.1564
     45 H13         3.5150   -5.7354   -1.4504 H         1 <0>         0.1757
     46 H14         3.3781   -1.8593    0.0272 H         1 <0>         0.1533
     47 H15         0.7990   -1.5818   -1.2298 H         1 <0>         0.1317
     48 H16         0.2704   -0.1410   -2.1313 H         1 <0>         0.1365
     49 H17         0.4934   -0.3663    0.9050 H         1 <0>         0.0935
     50 H18        -1.0198   -0.3817   -0.0334 H         1 <0>         0.1196
     51 H19        -0.5443    1.8890   -0.8732 H         1 <0>         0.0928
     52 H20         1.4123    3.1385   -0.0377 H         1 <0>         0.1193
     53 H21         1.9344    1.7192    0.9025 H         1 <0>         0.0939
     54 H22         3.1769    1.8599   -1.2340 H         1 <0>         0.1224
     55 H23         1.6412    1.8432   -2.1336 H         1 <0>         0.1329
     56 H24        -1.7247    1.5738    1.3250 H         1 <0>         0.0846
     57 H25        -0.1560    1.7367    2.1501 H         1 <0>         0.0804
     58 H26         1.0007    3.8680    2.2102 H         1 <0>         0.1205
     59 H27         0.7948    6.3200    2.1175 H         1 <0>         0.1245
     60 H28        -1.1893    7.3507    1.0858 H         1 <0>         0.1249
     61 H29        -2.9631    5.9295    0.1389 H         1 <0>         0.1248
     62 H30        -2.7532    3.4776    0.2240 H         1 <0>         0.1216
     63 N6          2.1538    0.0244   -1.1665 N.4       1 <0>        -0.3884
     64 H31         2.5791   -0.2684   -0.2791 H         1 <0>         0.4333
@<TRIPOS>BOND
     1    1    6 ar
     2    1    2 ar
     3    1   34 1
     4    2    3 ar
     5    2   35 1
     6    3    4 ar
     7    3   36 1
     8    4    5 ar
     9    4    7 1
    10    5    6 ar
    11    5   37 1
    12    6   38 1
    13    7    8 1
    14    7   39 1
    15    7   40 1
    16    8    9 1
    17    8   41 1
    18    8   42 1
    19    9   13 1
    20    9   10 1
    21   10   11 2
    22   10   14 1
    23   11   12 1
    24   12   13 2
    25   14   15 1
    26   14   16 1
    27   14   63 1
    28   16   21 ar
    29   16   17 ar
    30   17   18 ar
    31   17   43 1
    32   18   19 ar
    33   18   44 1
    34   19   20 ar
    35   19   45 1
    36   20   21 ar
    37   21   46 1
    38   22   23 1
    39   22   47 1
    40   22   48 1
    41   22   63 1
    42   23   24 1
    43   23   49 1
    44   23   50 1
    45   24   25 1
    46   24   27 1
    47   24   51 1
    48   25   26 1
    49   25   52 1
    50   25   53 1
    51   26   54 1
    52   26   55 1
    53   26   63 1
    54   27   28 1
    55   27   56 1
    56   27   57 1
    57   28   33 ar
    58   28   29 ar
    59   29   30 ar
    60   29   58 1
    61   30   31 ar
    62   30   59 1
    63   31   32 ar
    64   31   60 1
    65   32   33 ar
    66   32   61 1
    67   33   62 1
    68   63   64 1
@<TRIPOS>MOLECULE
ZINC34762268
   63    65     0     0     0
SMALL
USER_CHARGES

@<TRIPOS>ATOM
      1 C1         -0.8301    2.2785   -4.8932 C.3       1 <0>        -0.1588
      2 C2          0.2816    1.8136   -3.9504 C.3       1 <0>        -0.1211
      3 C3          0.5166    0.3136   -4.1396 C.3       1 <0>        -0.1490
      4 C4          1.6283   -0.1513   -3.1968 C.3       1 <0>        -0.0102
      5 N1          1.8539   -1.5915   -3.3784 N.4       1 <0>        -0.3805
      6 C5          2.3536   -1.8394   -4.7367 C.3       1 <0>        -0.0289
      7 C6          2.4804   -3.3491   -4.9656 C.3       1 <0>         0.1148
      8 N2          3.3196   -3.9139   -3.8975 N.pl3     1 <0>        -0.6588
      9 C7          2.9857   -3.5803   -2.5041 C.3       1 <0>         0.1192
     10 C8          2.8351   -2.0597   -2.3914 C.3       1 <0>        -0.0227
     11 C9          4.3917   -4.7354   -4.1947 C.ar      1 <0>         0.4755
     12 C10         4.2048   -6.1392   -4.3325 C.ar      1 <0>        -0.1832
     13 C11         2.9920   -6.9302   -4.2075 C.2       1 <0>        -0.0989
     14 C12         3.0552   -8.2578   -4.3821 C.2       1 <0>        -0.1152
     15 S1          4.7785   -8.5500   -4.7336 S.3       1 <0>         0.1265
     16 C13         5.3672   -6.8801   -4.6364 C.ar      1 <0>         0.1336
     17 N3          6.5402   -6.2944   -4.7793 N.ar      1 <0>        -0.4870
     18 C14         6.6544   -4.9807   -4.6388 C.ar      1 <0>         0.3129
     19 N4          5.5995   -4.2238   -4.3591 N.ar      1 <0>        -0.5158
     20 S2          8.2336   -4.2243   -4.8351 S.3       1 <0>         0.1105
     21 C15         9.3413   -5.6115   -5.2084 C.3       1 <0>        -0.1554
     22 C16        10.7441   -5.0961   -5.4020 C.2       1 <0>         0.5316
     23 O1         10.9740   -3.9098   -5.2984 O.2       1 <0>        -0.5220
     24 N5         11.7432   -5.9535   -5.6903 N.am      1 <0>        -0.6120
     25 C17        13.1070   -5.4524   -5.8786 C.3       1 <0>         0.0828
     26 C18        11.4655   -7.3864   -5.8155 C.3       1 <0>         0.0682
     27 C19         1.9362   -9.2638   -4.3003 C.3       1 <0>        -0.0784
     28 C20         1.6785   -6.2656   -3.8849 C.3       1 <0>        -0.0793
     29 C21         0.9080   -6.0030   -5.1804 C.3       1 <0>        -0.1530
     30 H1         -0.5367    2.0839   -5.9248 H         1 <0>         0.0589
     31 H2         -1.7482    1.7357   -4.6681 H         1 <0>         0.0592
     32 H3         -0.9976    3.3471   -4.7585 H         1 <0>         0.0669
     33 H4          1.1996    2.3564   -4.1756 H         1 <0>         0.0732
     34 H5         -0.0119    2.0081   -2.9189 H         1 <0>         0.0734
     35 H6         -0.4014   -0.2292   -3.9145 H         1 <0>         0.0867
     36 H7          0.8100    0.1190   -5.1712 H         1 <0>         0.0863
     37 H8          2.5463    0.3915   -3.4220 H         1 <0>         0.1300
     38 H9          1.3348    0.0432   -2.1652 H         1 <0>         0.1319
     39 H10         1.6575   -1.4189   -5.4624 H         1 <0>         0.1411
     40 H11         3.3303   -1.3704   -4.8559 H         1 <0>         0.1358
     41 H12         1.4923   -3.8082   -4.9365 H         1 <0>         0.0968
     42 H13         2.9455   -3.5350   -5.9337 H         1 <0>         0.1153
     43 H14         2.0486   -4.0628   -2.2265 H         1 <0>         0.0921
     44 H15         3.7849   -3.9191   -1.8448 H         1 <0>         0.1174
     45 H16         3.7972   -1.5840   -2.5815 H         1 <0>         0.1363
     46 H17         2.4937   -1.8016   -1.3889 H         1 <0>         0.1406
     47 H18         9.3259   -6.3214   -4.3814 H         1 <0>         0.1276
     48 H19         9.0076   -6.1079   -6.1196 H         1 <0>         0.1274
     49 H20        13.6290   -5.4514   -4.9217 H         1 <0>         0.0615
     50 H21        13.6368   -6.0960   -6.5808 H         1 <0>         0.0768
     51 H22        13.0698   -4.4371   -6.2732 H         1 <0>         0.0811
     52 H23        10.4045   -7.5673   -5.6433 H         1 <0>         0.0798
     53 H24        11.7336   -7.7224   -6.8172 H         1 <0>         0.0712
     54 H25        12.0519   -7.9358   -5.0790 H         1 <0>         0.0710
     55 H26         1.4822   -9.3832   -5.2841 H         1 <0>         0.0886
     56 H27         2.3328  -10.2220   -3.9645 H         1 <0>         0.0829
     57 H28         1.1841   -8.9140   -3.5932 H         1 <0>         0.0881
     58 H29         1.0907   -6.9172   -3.2383 H         1 <0>         0.0773
     59 H30         1.8651   -5.3204   -3.3751 H         1 <0>         0.0804
     60 H31         1.5338   -5.4315   -5.8658 H         1 <0>         0.0544
     61 H32         0.6378   -6.9530   -5.6414 H         1 <0>         0.0635
     62 H33         0.0035   -5.4373   -4.9568 H         1 <0>         0.0603
     63 H34         0.9843   -2.0861   -3.2471 H         1 <0>         0.4208
@<TRIPOS>BOND
     1    1    2 1
     2    1   30 1
     3    1   31 1
     4    1   32 1
     5    2    3 1
     6    2   33 1
     7    2   34 1
     8    3    4 1
     9    3   35 1
    10    3   36 1
    11    4    5 1
    12    4   37 1
    13    4   38 1
    14    5   10 1
    15    5    6 1
    16    5   63 1
    17    6    7 1
    18    6   39 1
    19    6   40 1
    20    7    8 1
    21    7   41 1
    22    7   42 1
    23    8    9 1
    24    8   11 1
    25    9   10 1
    26    9   43 1
    27    9   44 1
    28   10   45 1
    29   10   46 1
    30   11   19 ar
    31   11   12 ar
    32   12   16 ar
    33   12   13 1
    34   13   14 2
    35   13   28 1
    36   14   15 1
    37   14   27 1
    38   15   16 1
    39   16   17 ar
    40   17   18 ar
    41   18   19 ar
    42   18   20 1
    43   20   21 1
    44   21   22 1
    45   21   47 1
    46   21   48 1
    47   22   23 2
    48   22   24 am
    49   24   25 1
    50   24   26 1
    51   25   49 1
    52   25   50 1
    53   25   51 1
    54   26   52 1
    55   26   53 1
    56   26   54 1
    57   27   55 1
    58   27   56 1
    59   27   57 1
    60   28   29 1
    61   28   58 1
    62   28   59 1
    63   29   60 1
    64   29   61 1
    65   29   62 1
@<TRIPOS>MOLECULE
ZINC38726889
   57    60     0     0     0
SMALL
USER_CHARGES

@<TRIPOS>ATOM
      1 C1         -0.0187    1.5258    0.0104 C.3       1 <0>        -0.1556
      2 C2          0.0021   -0.0041    0.0020 C.3       1 <0>         0.0497
      3 O1          0.6932   -0.4774    1.1597 O.3       1 <0>        -0.3020
      4 C3          0.8018   -1.8224    1.3055 C.ar      1 <0>         0.2057
      5 C4          0.2537   -2.6673    0.3412 C.ar      1 <0>        -0.2251
      6 C5          0.3596   -4.0214    0.4759 C.ar      1 <0>         0.0132
      7 C6          1.0185   -4.5592    1.5832 C.ar      1 <0>        -0.2531
      8 C7          1.5711   -3.7190    2.5660 C.ar      1 <0>         0.1810
      9 C8          1.4600   -2.3405    2.4060 C.ar      1 <0>        -0.1778
     10 O2          2.2047   -4.2038    3.6584 O.3       1 <0>        -0.1772
     11 C9          2.5303   -5.5107    3.7142 C.2       1 <0>         0.0911
     12 C10         2.0505   -6.4277    2.8236 C.2       1 <0>        -0.2468
     13 C11         1.1478   -6.0282    1.7379 C.2       1 <0>         0.4583
     14 O3          0.5605   -6.8279    1.0303 O.2       1 <0>        -0.4331
     15 C12         2.6117   -7.7608    3.1957 C.3       1 <0>         0.2307
     16 H1          1.8063   -8.4514    3.4456 H         1 <0>         0.1327
     17 N1          3.4613   -7.5236    4.3743 N.am      1 <0>        -0.6001
     18 C13         3.4081   -6.2086    4.6692 C.2       1 <0>         0.5758
     19 O4          3.9983   -5.6771    5.5887 O.2       1 <0>        -0.4745
     20 C14         4.2293   -8.5383    5.1002 C.3       1 <0>         0.1478
     21 C15         5.6276   -8.6530    4.4897 C.3       1 <0>        -0.1914
     22 C16         6.4296   -9.7127    5.2477 C.3       1 <0>        -0.0073
     23 N2          7.7721   -9.8229    4.6616 N.4       1 <0>        -0.3870
     24 C17         8.5007   -8.5638    4.8664 C.3       1 <0>        -0.0540
     25 C18         8.5008  -10.9214    5.3099 C.3       1 <0>        -0.0477
     26 C19         3.4360   -8.3129    2.0613 C.ar      1 <0>        -0.0859
     27 C20         4.7229   -7.8517    1.8541 C.ar      1 <0>        -0.0971
     28 C21         5.4797   -8.3569    0.8138 C.ar      1 <0>        -0.1080
     29 C22         4.9499   -9.3248   -0.0206 C.ar      1 <0>        -0.0244
     30 C23         3.6614   -9.7869    0.1872 C.ar      1 <0>        -0.0276
     31 C24         2.9071   -9.2839    1.2322 C.ar      1 <0>        -0.0647
     32 Cl1         2.9949  -11.0010   -0.8593 Cl        1 <0>        -0.0260
     33 Cl2         5.8998   -9.9593   -1.3278 Cl        1 <0>        -0.0321
     34 H2          1.0039    1.9031    0.0027 H         1 <0>         0.0694
     35 H3         -0.5459    1.8868   -0.8726 H         1 <0>         0.0852
     36 H4         -0.5289    1.8773    0.9072 H         1 <0>         0.0701
     37 H5         -1.0205   -0.3814    0.0098 H         1 <0>         0.0713
     38 H6          0.5123   -0.3556   -0.8948 H         1 <0>         0.0706
     39 H7         -0.2563   -2.2492   -0.5141 H         1 <0>         0.1480
     40 H8         -0.0653   -4.6749   -0.2717 H         1 <0>         0.1511
     41 H9          1.8843   -1.6755    3.1436 H         1 <0>         0.1571
     42 H10         4.3129   -8.2500    6.1480 H         1 <0>         0.1060
     43 H11         3.7210   -9.4997    5.0273 H         1 <0>         0.1047
     44 H12         5.5440   -8.9413    3.4418 H         1 <0>         0.1026
     45 H13         6.1359   -7.6916    4.5626 H         1 <0>         0.0971
     46 H14         6.5132   -9.4244    6.2956 H         1 <0>         0.1355
     47 H15         5.9213  -10.6742    5.1748 H         1 <0>         0.1356
     48 H16         9.4968   -8.6456    4.4314 H         1 <0>         0.1262
     49 H17         7.9600   -7.7488    4.3853 H         1 <0>         0.1230
     50 H18         8.5859   -8.3629    5.9343 H         1 <0>         0.1252
     51 H19         7.9602  -11.8556    5.1579 H         1 <0>         0.1245
     52 H20         9.4970  -11.0031    4.8749 H         1 <0>         0.1257
     53 H21         8.5860  -10.7204    6.3778 H         1 <0>         0.1237
     54 H22         5.1368   -7.0961    2.5053 H         1 <0>         0.1337
     55 H23         6.4846   -7.9957    0.6521 H         1 <0>         0.1462
     56 H24         1.9034   -9.6468    1.3973 H         1 <0>         0.1534
     57 H25         7.6933  -10.0089    3.6730 H         1 <0>         0.4266
@<TRIPOS>BOND
     1    1    2 1
     2    1   34 1
     3    1   35 1
     4    1   36 1
     5    2    3 1
     6    2   37 1
     7    2   38 1
     8    3    4 1
     9    4    9 ar
    10    4    5 ar
    11    5    6 ar
    12    5   39 1
    13    6    7 ar
    14    6   40 1
    15    7   13 1
    16    7    8 ar
    17    8    9 ar
    18    8   10 1
    19    9   41 1
    20   10   11 1
    21   11   18 1
    22   11   12 2
    23   12   13 1
    24   12   15 1
    25   13   14 2
    26   15   16 1
    27   15   17 1
    28   15   26 1
    29   17   18 am
    30   17   20 1
    31   18   19 2
    32   20   21 1
    33   20   42 1
    34   20   43 1
    35   21   22 1
    36   21   44 1
    37   21   45 1
    38   22   23 1
    39   22   46 1
    40   22   47 1
    41   23   24 1
    42   23   25 1
    43   23   57 1
    44   24   48 1
    45   24   49 1
    46   24   50 1
    47   25   51 1
    48   25   52 1
    49   25   53 1
    50   26   31 ar
    51   26   27 ar
    52   27   28 ar
    53   27   54 1
    54   28   29 ar
    55   28   55 1
    56   29   30 ar
    57   29   33 1
    58   30   31 ar
    59   30   32 1
    60   31   56 1
@<TRIPOS>MOLECULE
ZINC39917550
   65    68     0     0     0
SMALL
USER_CHARGES

@<TRIPOS>ATOM
      1 C1         -0.0178    1.4648    0.0101 C.3       1 <0>        -0.0460
      2 N1          0.0021   -0.0041    0.0020 N.4       1 <0>        -0.3883
      3 C2          0.6881   -0.4775   -1.2074 C.3       1 <0>        -0.0030
      4 C3          0.6925   -2.0076   -1.2257 C.3       1 <0>         0.0254
      5 N2          1.3783   -2.5070   -0.0254 N.3       1 <0>        -0.5389
      6 C4          0.7172   -2.0206    1.1938 C.3       1 <0>         0.0204
      7 C5          0.7125   -0.4904    1.1921 C.3       1 <0>        -0.0031
      8 C6          1.4533   -3.9741   -0.0341 C.3       1 <0>         0.0558
      9 C7          2.3808   -4.4439    1.0884 C.3       1 <0>        -0.1122
     10 C8          2.4590   -5.9719    1.0794 C.3       1 <0>        -0.0413
     11 C9          3.3726   -6.4346    2.1850 C.2       1 <0>         0.2767
     12 N3          4.6561   -6.6117    2.0663 N.2       1 <0>        -0.4840
     13 C10         5.1704   -7.0313    3.2508 C.ar      1 <0>         0.0447
     14 C11         6.4586   -7.3641    3.6783 C.ar      1 <0>        -0.0627
     15 C12         6.6658   -7.7634    4.9681 C.ar      1 <0>        -0.1250
     16 C13         5.6081   -7.8435    5.8630 C.ar      1 <0>        -0.0950
     17 C14         4.3289   -7.5201    5.4634 C.ar      1 <0>        -0.1145
     18 C15         4.0993   -7.1117    4.1566 C.ar      1 <0>         0.0501
     19 N4          2.9763   -6.7225    3.4542 N.pl3     1 <0>        -0.4888
     20 C16         1.6106   -6.6382    3.9776 C.3       1 <0>         0.1148
     21 C17         0.9037   -7.9802    3.7766 C.3       1 <0>        -0.1370
     22 C18        -0.5226   -7.8922    4.3233 C.3       1 <0>        -0.1136
     23 C19        -1.2295   -9.2341    4.1222 C.3       1 <0>         0.0576
     24 O1         -2.5616   -9.1519    4.6328 O.3       1 <0>        -0.3128
     25 C20        -3.3312  -10.2677    4.5315 C.ar      1 <0>         0.1322
     26 C21        -2.8126  -11.4193    3.9577 C.ar      1 <0>        -0.1973
     27 C22        -3.5964  -12.5523    3.8556 C.ar      1 <0>        -0.0684
     28 C23        -4.8980  -12.5388    4.3248 C.ar      1 <0>        -0.0712
     29 C24        -5.4172  -11.3910    4.8970 C.ar      1 <0>        -0.0689
     30 C25        -4.6344  -10.2580    5.0069 C.ar      1 <0>        -0.1391
     31 Cl1        -5.8811  -13.9637    4.1948 Cl        1 <0>        -0.0637
     32 H1          1.0047    1.8421    0.0024 H         1 <0>         0.1234
     33 H2         -0.5450    1.8259   -0.8730 H         1 <0>         0.1247
     34 H3         -0.5280    1.8163    0.9069 H         1 <0>         0.1242
     35 H4          0.1675   -0.1052   -2.0897 H         1 <0>         0.1364
     36 H5          1.7147   -0.1111   -1.2098 H         1 <0>         0.1382
     37 H6         -0.3339   -2.3742   -1.2371 H         1 <0>         0.0610
     38 H7          1.2146   -2.3592   -2.1156 H         1 <0>         0.1251
     39 H8         -0.3088   -2.3874    1.2222 H         1 <0>         0.0611
     40 H9          1.2573   -2.3817    2.0691 H         1 <0>         0.1234
     41 H10         1.7390   -0.1239    1.1774 H         1 <0>         0.1379
     42 H11         0.2100   -0.1276    2.0887 H         1 <0>         0.1355
     43 H12         0.4575   -4.3897    0.1196 H         1 <0>         0.0492
     44 H13         1.8441   -4.3122   -0.9938 H         1 <0>         0.0945
     45 H14         3.3767   -4.0282    0.9348 H         1 <0>         0.0879
     46 H15         1.9900   -4.1057    2.0481 H         1 <0>         0.0628
     47 H16         1.4632   -6.3875    1.2330 H         1 <0>         0.0839
     48 H17         2.8498   -6.3100    0.1197 H         1 <0>         0.1052
     49 H18         7.2888   -7.3060    2.9900 H         1 <0>         0.1304
     50 H19         7.6628   -8.0198    5.2947 H         1 <0>         0.1326
     51 H20         5.7882   -8.1617    6.8792 H         1 <0>         0.1326
     52 H21         3.5094   -7.5838    6.1639 H         1 <0>         0.1212
     53 H22         1.6431   -6.4004    5.0409 H         1 <0>         0.0939
     54 H23         1.0657   -5.8574    3.4471 H         1 <0>         0.0906
     55 H24         0.8713   -8.2180    2.7133 H         1 <0>         0.0746
     56 H25         1.4487   -8.7610    4.3071 H         1 <0>         0.0781
     57 H26        -0.4901   -7.6543    5.3865 H         1 <0>         0.0808
     58 H27        -1.0675   -7.1114    3.7927 H         1 <0>         0.0768
     59 H28        -1.2619   -9.4720    3.0590 H         1 <0>         0.0650
     60 H29        -0.6845  -10.0149    4.6527 H         1 <0>         0.0668
     61 H30        -1.7969  -11.4300    3.5907 H         1 <0>         0.1356
     62 H31        -3.1930  -13.4491    3.4089 H         1 <0>         0.1380
     63 H32        -6.4335  -11.3823    5.2623 H         1 <0>         0.1428
     64 H33        -5.0384   -9.3638    5.4579 H         1 <0>         0.1407
     65 H34        -0.9446   -0.3531    0.0097 H         1 <0>         0.4223
@<TRIPOS>BOND
     1    1    2 1
     2    1   32 1
     3    1   33 1
     4    1   34 1
     5    2    7 1
     6    2    3 1
     7    2   65 1
     8    3    4 1
     9    3   35 1
    10    3   36 1
    11    4    5 1
    12    4   37 1
    13    4   38 1
    14    5    6 1
    15    5    8 1
    16    6    7 1
    17    6   39 1
    18    6   40 1
    19    7   41 1
    20    7   42 1
    21    8    9 1
    22    8   43 1
    23    8   44 1
    24    9   10 1
    25    9   45 1
    26    9   46 1
    27   10   11 1
    28   10   47 1
    29   10   48 1
    30   11   19 1
    31   11   12 2
    32   12   13 1
    33   13   18 ar
    34   13   14 ar
    35   14   15 ar
    36   14   49 1
    37   15   16 ar
    38   15   50 1
    39   16   17 ar
    40   16   51 1
    41   17   18 ar
    42   17   52 1
    43   18   19 1
    44   19   20 1
    45   20   21 1
    46   20   53 1
    47   20   54 1
    48   21   22 1
    49   21   55 1
    50   21   56 1
    51   22   23 1
    52   22   57 1
    53   22   58 1
    54   23   24 1
    55   23   59 1
    56   23   60 1
    57   24   25 1
    58   25   30 ar
    59   25   26 ar
    60   26   27 ar
    61   26   61 1
    62   27   28 ar
    63   27   62 1
    64   28   29 ar
    65   28   31 1
    66   29   30 ar
    67   29   63 1
    68   30   64 1
@<TRIPOS>MOLECULE
ZINC04631710
   45    48     0     0     0
SMALL
USER_CHARGES
4-amino-2-(4-cyclopentoxyphenyl)-9-methyl-5-oxa-7,8-diazabicyclo[4.3.0]nona-3,8,10-triene-3-carbonitrile
@<TRIPOS>ATOM
      1 C1          6.4471   -2.1790   -1.0018 C.3       1 <0>        -0.0788
      2 C2          5.8766   -3.2343   -0.0896 C.2       1 <0>         0.1215
      3 C3          5.4178   -3.0308    1.2040 C.2       1 <0>        -0.2618
      4 C4          4.9808   -4.2314    1.6925 C.2       1 <0>         0.2734
      5 N1          5.1631   -5.1507    0.7310 N.pl3     1 <0>        -0.4495
      6 H1          4.9372   -6.1227    0.7952 H         1 <0>         0.4531
      7 N2          5.7272   -4.5048   -0.3803 N.2       1 <0>        -0.2645
      8 O1          4.4693   -4.3723    2.9407 O.3       1 <0>        -0.2318
      9 C5          4.6467   -3.3540    3.8068 C.2       1 <0>         0.4371
     10 C6          5.0616   -2.1203    3.4428 C.2       1 <0>        -0.2557
     11 C7          5.3658   -1.7589    2.0104 C.3       1 <0>         0.1262
     12 H2          6.3279   -1.2494    1.9560 H         1 <0>         0.0954
     13 C8          4.2832   -0.8594    1.4720 C.ar      1 <0>        -0.1098
     14 C9          4.6023    0.4036    1.0086 C.ar      1 <0>        -0.0703
     15 C10         3.6116    1.2301    0.5146 C.ar      1 <0>        -0.2066
     16 C11         2.2957    0.7918    0.4836 C.ar      1 <0>         0.1317
     17 C12         1.9773   -0.4738    0.9545 C.ar      1 <0>        -0.1523
     18 C13         2.9725   -1.2987    1.4418 C.ar      1 <0>        -0.0593
     19 O2          1.3194    1.6029   -0.0019 O.3       1 <0>        -0.3083
     20 C14         1.6975    2.9361   -0.3508 C.3       1 <0>         0.0785
     21 C15         2.2248    2.9867   -1.8063 C.3       1 <0>        -0.1480
     22 C16         1.9997    4.4723   -2.1963 C.3       1 <0>        -0.1243
     23 C17         0.6560    4.8391   -1.5331 C.3       1 <0>        -0.1229
     24 C18         0.4639    3.8623   -0.3597 C.3       1 <0>        -0.1208
     25 C19         5.2185   -1.1193    4.4547 C.1       1 <0>         0.2713
     26 N3          5.3431   -0.3252    5.2574 N.1       1 <0>        -0.4392
     27 N4          4.3906   -3.5838    5.1357 N.pl3     1 <0>        -0.8320
     28 H3          5.6436   -1.7309   -1.5863 H         1 <0>         0.0844
     29 H4          6.9357   -1.4086   -0.4052 H         1 <0>         0.0825
     30 H5          7.1748   -2.6343   -1.6736 H         1 <0>         0.0783
     31 H6          5.6268    0.7445    1.0332 H         1 <0>         0.1250
     32 H7          3.8614    2.2164    0.1524 H         1 <0>         0.1283
     33 H8          0.9530   -0.8155    0.9356 H         1 <0>         0.1272
     34 H9          2.7258   -2.2857    1.8043 H         1 <0>         0.1179
     35 H10         2.4513    3.3114    0.3413 H         1 <0>         0.0795
     36 H11         3.2839    2.7313   -1.8426 H         1 <0>         0.0731
     37 H12         1.6447    2.3259   -2.4505 H         1 <0>         0.0801
     38 H13         1.9315    4.5760   -3.2792 H         1 <0>         0.0720
     39 H14         2.8023    5.0957   -1.8022 H         1 <0>         0.0690
     40 H15        -0.1573    4.7261   -2.2499 H         1 <0>         0.0695
     41 H16         0.6885    5.8642   -1.1641 H         1 <0>         0.0692
     42 H17        -0.4427    3.2754   -0.5071 H         1 <0>         0.0796
     43 H18         0.4035    4.4127    0.5792 H         1 <0>         0.0733
     44 H19         4.5087   -2.8708    5.7827 H         1 <0>         0.4277
     45 H20         4.0914   -4.4591    5.4277 H         1 <0>         0.4111
@<TRIPOS>BOND
     1    1    2 1
     2    1   28 1
     3    1   29 1
     4    1   30 1
     5    2    7 2
     6    2    3 1
     7    3   11 1
     8    3    4 2
     9    4    5 1
    10    4    8 1
    11    5    6 1
    12    5    7 1
    13    8    9 1
    14    9   10 2
    15    9   27 1
    16   10   11 1
    17   10   25 1
    18   11   12 1
    19   11   13 1
    20   13   18 ar
    21   13   14 ar
    22   14   15 ar
    23   14   31 1
    24   15   16 ar
    25   15   32 1
    26   16   17 ar
    27   16   19 1
    28   17   18 ar
    29   17   33 1
    30   18   34 1
    31   19   20 1
    32   20   24 1
    33   20   21 1
    34   20   35 1
    35   21   22 1
    36   21   36 1
    37   21   37 1
    38   22   23 1
    39   22   38 1
    40   22   39 1
    41   23   24 1
    42   23   40 1
    43   23   41 1
    44   24   42 1
    45   24   43 1
    46   25   26 3
    47   27   44 1
    48   27   45 1
@<TRIPOS>MOLECULE
ZINC05818505
   43    45     0     0     0
SMALL
USER_CHARGES
N-(m-tolyl)-N'-(o-tolyl)-1H-imidazole-4,5-dicarboxamide
@<TRIPOS>ATOM
      1 C1          2.1345    1.0435    1.3609 C.3       1 <0>        -0.1143
      2 C2          1.0059    1.7805    0.6869 C.ar      1 <0>        -0.0650
      3 C3         -0.0140    1.0731    0.0766 C.ar      1 <0>        -0.1413
      4 C4         -1.0545    1.7453   -0.5375 C.ar      1 <0>        -0.0946
      5 C5         -1.0756    3.1264   -0.5482 C.ar      1 <0>        -0.1569
      6 C6         -0.0502    3.8397    0.0588 C.ar      1 <0>         0.1558
      7 C7          0.9937    3.1612    0.6749 C.ar      1 <0>        -0.1311
      8 N1         -0.0688    5.2378    0.0502 N.am      1 <0>        -0.6595
      9 C8          1.0856    5.9277    0.1389 C.2       1 <0>         0.5820
     10 O1          2.1488    5.3385    0.1196 O.2       1 <0>        -0.4605
     11 C9          1.0590    7.4005    0.2598 C.2       1 <0>         0.0366
     12 C10         2.1616    8.2392    0.3595 C.2       1 <0>        -0.0119
     13 N2          1.6634    9.5143    0.4505 N.pl3     1 <0>        -0.5490
     14 H1          2.1996   10.3542    0.5344 H         1 <0>         0.4355
     15 C11         0.3203    9.4280    0.4061 C.2       1 <0>         0.2290
     16 N3         -0.0361    8.1783    0.2880 N.2       1 <0>        -0.4699
     17 C12         3.5787    7.8404    0.3661 C.2       1 <0>         0.5731
     18 O2          3.8803    6.6654    0.2778 O.2       1 <0>        -0.4387
     19 N4          4.5419    8.7774    0.4699 N.am      1 <0>        -0.6728
     20 C13         5.8876    8.4096    0.3787 C.ar      1 <0>         0.1420
     21 C14         6.3116    7.1883    0.8874 C.ar      1 <0>        -0.1141
     22 C15         7.6407    6.8263    0.7917 C.ar      1 <0>        -0.1052
     23 C16         8.5513    7.6822    0.1992 C.ar      1 <0>        -0.1272
     24 C17         8.1335    8.9005   -0.3038 C.ar      1 <0>        -0.1035
     25 C18         6.8046    9.2668   -0.2157 C.ar      1 <0>        -0.1121
     26 C19         6.3504   10.5952   -0.7633 C.3       1 <0>        -0.1152
     27 H2          2.9339    0.8667    0.6413 H         1 <0>         0.0722
     28 H3          2.5162    1.6417    2.1882 H         1 <0>         0.0663
     29 H4          1.7698    0.0891    1.7405 H         1 <0>         0.0666
     30 H5          0.0002   -0.0068    0.0836 H         1 <0>         0.1218
     31 H6         -1.8518    1.1900   -1.0090 H         1 <0>         0.1258
     32 H7         -1.8889    3.6509   -1.0277 H         1 <0>         0.1246
     33 H8          1.7927    3.7130    1.1478 H         1 <0>         0.1437
     34 H9         -0.9125    5.7112   -0.0197 H         1 <0>         0.4172
     35 H10        -0.3587   10.2664    0.4559 H         1 <0>         0.2261
     36 H11         4.3015    9.7069    0.6080 H         1 <0>         0.4009
     37 H12         5.6018    6.5214    1.3541 H         1 <0>         0.1413
     38 H13         7.9703    5.8755    1.1840 H         1 <0>         0.1271
     39 H14         9.5910    7.3986    0.1297 H         1 <0>         0.1246
     40 H15         8.8471    9.5666   -0.7658 H         1 <0>         0.1265
     41 H16         6.4224   11.3534    0.0164 H         1 <0>         0.0712
     42 H17         6.9840   10.8774   -1.6042 H         1 <0>         0.0736
     43 H18         5.3162   10.5156   -1.0984 H         1 <0>         0.0596
@<TRIPOS>BOND
     1    1    2 1
     2    1   27 1
     3    1   28 1
     4    1   29 1
     5    2    7 ar
     6    2    3 ar
     7    3    4 ar
     8    3   30 1
     9    4    5 ar
    10    4   31 1
    11    5    6 ar
    12    5   32 1
    13    6    7 ar
    14    6    8 1
    15    7   33 1
    16    8    9 am
    17    8   34 1
    18    9   10 2
    19    9   11 1
    20   11   16 1
    21   11   12 2
    22   12   13 1
    23   12   17 1
    24   13   14 1
    25   13   15 1
    26   15   16 2
    27   15   35 1
    28   17   18 2
    29   17   19 am
    30   19   20 1
    31   19   36 1
    32   20   25 ar
    33   20   21 ar
    34   21   22 ar
    35   21   37 1
    36   22   23 ar
    37   22   38 1
    38   23   24 ar
    39   23   39 1
    40   24   25 ar
    41   24   40 1
    42   25   26 1
    43   26   41 1
    44   26   42 1
    45   26   43 1
@<TRIPOS>MOLECULE
ZINC25561537
   37    38     0     0     0
SMALL
USER_CHARGES
2-amino-4-(cyanomethyl)-6-[(3,5-dimethylphenyl)amino]pyridine-3,5-dicarbonitrile
@<TRIPOS>ATOM
      1 C1         -2.2300   -3.1932   -1.4763 C.3       1 <0>        -0.1155
      2 C2         -3.4231   -2.5571   -0.8107 C.ar      1 <0>        -0.0641
      3 C3         -4.4395   -3.3504   -0.3108 C.ar      1 <0>        -0.1353
      4 C4         -5.5359   -2.7708    0.3011 C.ar      1 <0>        -0.0609
      5 C5         -5.6188   -1.3970    0.4153 C.ar      1 <0>        -0.1518
      6 C6         -4.5996   -0.5972   -0.0858 C.ar      1 <0>         0.1604
      7 C7         -3.5026   -1.1824   -0.7054 C.ar      1 <0>        -0.1177
      8 N1         -4.6803    0.7935    0.0281 N.pl3     1 <0>        -0.6518
      9 C8         -3.5312    1.5401    0.2008 C.ar      1 <0>         0.5227
     10 C9         -3.6081    2.9468    0.1964 C.ar      1 <0>        -0.1926
     11 C10        -2.4397    3.6918    0.3715 C.ar      1 <0>         0.1281
     12 C11        -1.2364    3.0049    0.5506 C.ar      1 <0>        -0.1965
     13 C12        -1.2428    1.5964    0.5369 C.ar      1 <0>         0.5300
     14 N2         -2.3711    0.9253    0.3681 N.ar      1 <0>        -0.5824
     15 N3         -0.0589    0.9076    0.7073 N.pl3     1 <0>        -0.8413
     16 C13        -0.0121    3.7231    0.7398 C.1       1 <0>         0.2571
     17 N4          0.9591    4.2929    0.8898 N.1       1 <0>        -0.4108
     18 C14        -2.4770    5.1984    0.3734 C.3       1 <0>        -0.0009
     19 C15        -2.6907    5.6822    1.7471 C.1       1 <0>         0.2009
     20 N5         -2.8556    6.0556    2.8072 N.1       1 <0>        -0.4003
     21 C16        -4.8675    3.6040    0.0153 C.1       1 <0>         0.2549
     22 N6         -5.8665    4.1254   -0.1284 N.1       1 <0>        -0.4077
     23 C17        -6.6411   -3.6393    0.8444 C.3       1 <0>        -0.1184
     24 H1         -2.3441   -4.2872   -1.4655 H         1 <0>         0.0657
     25 H2         -1.3151   -2.9146   -0.9328 H         1 <0>         0.0707
     26 H3         -2.1599   -2.8421   -2.5164 H         1 <0>         0.0698
     27 H4         -4.3771   -4.4250   -0.3988 H         1 <0>         0.1217
     28 H5         -6.4750   -0.9450    0.8939 H         1 <0>         0.1232
     29 H6         -2.7106   -0.5632   -1.1000 H         1 <0>         0.1376
     30 H7         -5.6590    1.2934   -0.0198 H         1 <0>         0.4486
     31 H8         -0.0563   -0.1924    0.6977 H         1 <0>         0.4403
     32 H9          0.8820    1.4586    0.8527 H         1 <0>         0.4390
     33 H10        -1.5224    5.5893   -0.0087 H         1 <0>         0.1341
     34 H11        -3.2991    5.5457   -0.2697 H         1 <0>         0.1341
     35 H12        -7.4206   -3.0043    1.2907 H         1 <0>         0.0653
     36 H13        -6.2337   -4.3138    1.6119 H         1 <0>         0.0718
     37 H14        -7.0757   -4.2336    0.0272 H         1 <0>         0.0719
@<TRIPOS>BOND
     1    1    2 1
     2    1   24 1
     3    1   25 1
     4    1   26 1
     5    2    7 ar
     6    2    3 ar
     7    3    4 ar
     8    3   27 1
     9    4    5 ar
    10    4   23 1
    11    5    6 ar
    12    5   28 1
    13    6    7 ar
    14    6    8 1
    15    7   29 1
    16    8    9 1
    17    8   30 1
    18    9   14 ar
    19    9   10 ar
    20   10   11 ar
    21   10   21 1
    22   11   12 ar
    23   11   18 1
    24   12   13 ar
    25   12   16 1
    26   13   14 ar
    27   13   15 1
    28   15   31 1
    29   15   32 1
    30   16   17 3
    31   18   19 1
    32   18   33 1
    33   18   34 1
    34   19   20 3
    35   21   22 3
    36   23   35 1
    37   23   36 1
    38   23   37 1
@<TRIPOS>MOLECULE
ZINC06499321
   41    43     0     0     0
SMALL
USER_CHARGES

@<TRIPOS>ATOM
      1 C1         -0.0187    1.5258    0.0104 C.3       1 <0>        -0.1536
      2 C2          0.0021   -0.0041    0.0020 C.3       1 <0>        -0.1185
      3 C3          0.7182   -0.4975   -1.2568 C.3       1 <0>        -0.0653
      4 C4          0.7386   -2.0043   -1.2651 C.2       1 <0>         0.1457
      5 C5         -0.2340   -2.8069   -1.7227 C.2       1 <0>        -0.2683
      6 C6          0.1817   -4.1450   -1.5460 C.2       1 <0>         0.2722
      7 N1          1.3640   -4.1308   -1.0023 N.2       1 <0>        -0.2563
      8 N2          1.7439   -2.7920   -0.8177 N.pl3     1 <0>        -0.4593
      9 H1          2.5803   -2.4850   -0.4343 H         1 <0>         0.4504
     10 O1         -0.5981   -5.1969   -1.9136 O.3       1 <0>        -0.2103
     11 C7         -1.8895   -4.9410   -2.2026 C.2       1 <0>         0.4464
     12 C8         -2.3985   -3.7077   -2.4045 C.2       1 <0>        -0.2680
     13 C9         -1.5660   -2.4527   -2.3330 C.3       1 <0>         0.1236
     14 H2         -2.0695   -1.7113   -1.7126 H         1 <0>         0.1029
     15 C10        -1.3594   -1.9007   -3.7200 C.ar      1 <0>        -0.0665
     16 C11        -0.7535   -2.6772   -4.6891 C.ar      1 <0>        -0.1047
     17 C12        -0.5639   -2.1691   -5.9655 C.ar      1 <0>         0.1211
     18 C13        -0.9830   -0.8816   -6.2674 C.ar      1 <0>        -0.1820
     19 C14        -1.5883   -0.1075   -5.2968 C.ar      1 <0>        -0.1102
     20 C15        -1.7818   -0.6180   -4.0241 C.ar      1 <0>         0.0652
     21 F1         -2.3791    0.1382   -3.0772 F         1 <0>        -0.1359
     22 O2          0.0324   -2.9319   -6.9198 O.3       1 <0>        -0.3135
     23 C16         0.1952   -2.3441   -8.2121 C.3       1 <0>         0.0251
     24 C17        -3.7942   -3.5852   -2.7005 C.1       1 <0>         0.2700
     25 N3         -4.9014   -3.4880   -2.9352 N.1       1 <0>        -0.4393
     26 N4         -2.7462   -6.0091   -2.2986 N.pl3     1 <0>        -0.8296
     27 H3          1.0039    1.9031    0.0027 H         1 <0>         0.0554
     28 H4         -0.5459    1.8868   -0.8726 H         1 <0>         0.0596
     29 H5         -0.5289    1.8773    0.9072 H         1 <0>         0.0595
     30 H6          0.5293   -0.3651    0.8851 H         1 <0>         0.0648
     31 H7         -1.0205   -0.3814    0.0098 H         1 <0>         0.0718
     32 H8          0.1910   -0.1364   -2.1398 H         1 <0>         0.0959
     33 H9          1.7408   -0.1202   -1.2645 H         1 <0>         0.0839
     34 H10        -0.4275   -3.6793   -4.4525 H         1 <0>         0.1339
     35 H11        -0.8356   -0.4845   -7.2609 H         1 <0>         0.1377
     36 H12        -1.9143    0.8951   -5.5315 H         1 <0>         0.1394
     37 H13        -0.7818   -2.0798   -8.6167 H         1 <0>         0.0572
     38 H14         0.8087   -1.4470   -8.1285 H         1 <0>         0.0572
     39 H15         0.6829   -3.0572   -8.8767 H         1 <0>         0.1024
     40 H16        -2.4153   -6.9103   -2.1600 H         1 <0>         0.4127
     41 H17        -3.6826   -5.8627   -2.5052 H         1 <0>         0.4271
@<TRIPOS>BOND
     1    1    2 1
     2    1   27 1
     3    1   28 1
     4    1   29 1
     5    2    3 1
     6    2   30 1
     7    2   31 1
     8    3    4 1
     9    3   32 1
    10    3   33 1
    11    4    8 1
    12    4    5 2
    13    5   13 1
    14    5    6 1
    15    6    7 2
    16    6   10 1
    17    7    8 1
    18    8    9 1
    19   10   11 1
    20   11   12 2
    21   11   26 1
    22   12   13 1
    23   12   24 1
    24   13   14 1
    25   13   15 1
    26   15   20 ar
    27   15   16 ar
    28   16   17 ar
    29   16   34 1
    30   17   18 ar
    31   17   22 1
    32   18   19 ar
    33   18   35 1
    34   19   20 ar
    35   19   36 1
    36   20   21 1
    37   22   23 1
    38   23   37 1
    39   23   38 1
    40   23   39 1
    41   24   25 3
    42   26   40 1
    43   26   41 1
@<TRIPOS>MOLECULE
ZINC53005327
   33    34     0     0     0
SMALL
USER_CHARGES

@<TRIPOS>ATOM
      1 C1          0.0210    1.5002    0.2089 C.3       1 <0>        -0.1083
      2 C2          0.0356   -0.0056    0.1508 C.ar      1 <0>        -0.1555
      3 C3          0.0456   -0.6480   -1.0775 C.ar      1 <0>        -0.0295
      4 C4          0.0595   -2.0258   -1.1452 C.ar      1 <0>        -0.2065
      5 C5          0.0634   -2.7801    0.0218 C.ar      1 <0>         0.2875
      6 C6          0.0533   -2.1327    1.2670 C.ar      1 <0>        -0.2386
      7 C7          0.0446   -0.7362    1.3185 C.ar      1 <0>        -0.0330
      8 C8          0.0569   -2.9207    2.5128 C.2       1 <0>         0.5799
      9 O1          0.1597   -4.1316    2.4660 O.2       1 <0>        -0.5246
     10 N1         -0.0539   -2.2993    3.7036 N.am      1 <0>        -0.6627
     11 C9          0.0666   -3.0324    4.8891 C.ar      1 <0>         0.1693
     12 C10         0.7816   -4.2229    4.9016 C.ar      1 <0>        -0.0630
     13 C11         0.8987   -4.9444    6.0734 C.ar      1 <0>        -0.0219
     14 C12         0.3046   -4.4832    7.2340 C.ar      1 <0>        -0.0647
     15 C13        -0.4085   -3.2987    7.2259 C.ar      1 <0>        -0.0820
     16 C14        -0.5242   -2.5682    6.0582 C.ar      1 <0>        -0.0308
     17 Cl1        -1.4126   -1.0767    6.0502 Cl        1 <0>        -0.0320
     18 N2          1.6607   -6.2133    6.0870 N.pl3     1 <0>         0.0316
     19 O2          2.1800   -6.6174    5.0728 O.2       1 <0>        -0.1454
     20 O3          1.7638   -6.8455    7.1123 O.3       1 <0>        -0.1486
     21 N3          0.0769   -4.1673   -0.0437 N.pl3     1 <0>        -0.8521
     22 H1          1.0451    1.8733    0.2212 H         1 <0>         0.0675
     23 H2         -0.4981    1.8926   -0.6656 H         1 <0>         0.0663
     24 H3         -0.4945    1.8240    1.1131 H         1 <0>         0.0636
     25 H4          0.0422   -0.0661   -1.9873 H         1 <0>         0.1299
     26 H5          0.0669   -2.5187   -2.1061 H         1 <0>         0.1319
     27 H6          0.0409   -0.2303    2.2727 H         1 <0>         0.1215
     28 H7         -0.2172   -1.3438    3.7387 H         1 <0>         0.4200
     29 H8          1.2453   -4.5843    3.9956 H         1 <0>         0.1847
     30 H9          0.3977   -5.0498    8.1487 H         1 <0>         0.1659
     31 H10        -0.8718   -2.9417    8.1338 H         1 <0>         0.1645
     32 H11         0.0086   -4.6130   -0.9026 H         1 <0>         0.3978
     33 H12         0.1545   -4.6905    0.7694 H         1 <0>         0.4173
@<TRIPOS>BOND
     1    1    2 1
     2    1   22 1
     3    1   23 1
     4    1   24 1
     5    2    7 ar
     6    2    3 ar
     7    3    4 ar
     8    3   25 1
     9    4    5 ar
    10    4   26 1
    11    5    6 ar
    12    5   21 1
    13    6    7 ar
    14    6    8 1
    15    7   27 1
    16    8    9 2
    17    8   10 am
    18   10   11 1
    19   10   28 1
    20   11   16 ar
    21   11   12 ar
    22   12   13 ar
    23   12   29 1
    24   13   14 ar
    25   13   18 1
    26   14   15 ar
    27   14   30 1
    28   15   16 ar
    29   15   31 1
    30   16   17 1
    31   18   19 2
    32   18   20 1
    33   21   32 1
    34   21   33 1
@<TRIPOS>MOLECULE
ZINC67542222
   47    50     0     0     0
SMALL
USER_CHARGES

@<TRIPOS>ATOM
      1 C1         -0.0816    0.8723   -1.2759 C.3       1 <0>        -0.1163
      2 C2          0.0068   -0.6161   -1.0571 C.ar      1 <0>        -0.0891
      3 C3          0.1539   -1.4643   -2.1397 C.ar      1 <0>        -0.1159
      4 C4          0.2358   -2.8282   -1.9448 C.ar      1 <0>        -0.1040
      5 C5          0.1702   -3.3502   -0.6549 C.ar      1 <0>        -0.0064
      6 C6          0.0221   -2.4915    0.4319 C.ar      1 <0>        -0.1097
      7 C7         -0.0536   -1.1287    0.2262 C.ar      1 <0>        -0.1179
      8 C8          0.2573   -4.8166   -0.4393 C.2       1 <0>        -0.1936
      9 C9         -0.4903   -5.8026   -1.1120 C.2       1 <0>         0.0689
     10 N1         -0.1319   -6.9705   -0.6483 N.2       1 <0>        -0.2873
     11 N2          0.8504   -6.7782    0.3306 N.pl3     1 <0>        -0.4685
     12 H1          1.2922   -7.4769    0.8380 H         1 <0>         0.4381
     13 C10         1.0804   -5.4543    0.4423 C.2       1 <0>         0.1134
     14 C11         2.0661   -4.7978    1.3743 C.3       1 <0>        -0.0439
     15 H2          2.0276   -3.7166    1.2415 H         1 <0>         0.1076
     16 C12         1.7117   -5.1477    2.8214 C.3       1 <0>        -0.1150
     17 C13         2.6924   -4.4548    3.7703 C.3       1 <0>        -0.1350
     18 C14         4.1121   -4.9552    3.4856 C.3       1 <0>         0.1191
     19 N3          4.4074   -4.7542    2.0604 N.pl3     1 <0>        -0.5971
     20 C15         3.4787   -5.3015    1.0619 C.3       1 <0>         0.1322
     21 C16         5.5408   -4.0609    1.6648 C.ar      1 <0>         0.4665
     22 C17         6.5255   -3.7305    2.5911 C.ar      1 <0>        -0.3643
     23 C18         7.6441   -3.0346    2.1437 C.ar      1 <0>         0.4642
     24 N4          7.7316   -2.7120    0.8544 N.ar      1 <0>        -0.6130
     25 C19         6.7778   -3.0430    0.0083 C.ar      1 <0>         0.3790
     26 N5          5.7058   -3.7061    0.3919 N.ar      1 <0>        -0.6085
     27 N6          8.6526   -2.6817    3.0270 N.pl3     1 <0>        -0.8391
     28 H3          0.9193    1.3032   -1.2518 H         1 <0>         0.0698
     29 H4         -0.5392    1.0705   -2.2452 H         1 <0>         0.0662
     30 H5         -0.6889    1.3198   -0.4891 H         1 <0>         0.0652
     31 H6          0.2043   -1.0586   -3.1393 H         1 <0>         0.1221
     32 H7          0.3503   -3.4897   -2.7908 H         1 <0>         0.1226
     33 H8         -0.0293   -2.8910    1.4339 H         1 <0>         0.1178
     34 H9         -0.1643   -0.4617    1.0684 H         1 <0>         0.1200
     35 H10        -1.2310   -5.6244   -1.8775 H         1 <0>         0.1862
     36 H11         0.6978   -4.8117    3.0384 H         1 <0>         0.0738
     37 H12         1.7739   -6.2271    2.9597 H         1 <0>         0.0647
     38 H13         2.6487   -3.3768    3.6151 H         1 <0>         0.0724
     39 H14         2.4254   -4.6855    4.8016 H         1 <0>         0.0832
     40 H15         4.8253   -4.3938    4.0892 H         1 <0>         0.0886
     41 H16         4.1809   -6.0159    3.7270 H         1 <0>         0.0704
     42 H17         3.4963   -6.3905    1.1053 H         1 <0>         0.0590
     43 H18         3.7736   -4.9686    0.0667 H         1 <0>         0.1061
     44 H19         6.4238   -4.0068    3.6302 H         1 <0>         0.1353
     45 H20         6.8793   -2.7664   -1.0307 H         1 <0>         0.1950
     46 H21         8.5814   -2.9200    3.9646 H         1 <0>         0.4098
     47 H22         9.4294   -2.1966    2.7075 H         1 <0>         0.4077
@<TRIPOS>BOND
     1    1    2 1
     2    1   28 1
     3    1   29 1
     4    1   30 1
     5    2    7 ar
     6    2    3 ar
     7    3    4 ar
     8    3   31 1
     9    4    5 ar
    10    4   32 1
    11    5    6 ar
    12    5    8 1
    13    6    7 ar
    14    6   33 1
    15    7   34 1
    16    8   13 2
    17    8    9 1
    18    9   10 2
    19    9   35 1
    20   10   11 1
    21   11   12 1
    22   11   13 1
    23   13   14 1
    24   14   15 1
    25   14   20 1
    26   14   16 1
    27   16   17 1
    28   16   36 1
    29   16   37 1
    30   17   18 1
    31   17   38 1
    32   17   39 1
    33   18   19 1
    34   18   40 1
    35   18   41 1
    36   19   20 1
    37   19   21 1
    38   20   42 1
    39   20   43 1
    40   21   26 ar
    41   21   22 ar
    42   22   23 ar
    43   22   44 1
    44   23   24 ar
    45   23   27 1
    46   24   25 ar
    47   25   26 ar
    48   25   45 1
    49   27   46 1
    50   27   47 1
@<TRIPOS>MOLECULE
ZINC37308716
   31    33     0     0     0
SMALL
USER_CHARGES

@<TRIPOS>ATOM
      1 C1         -0.0167    1.3782    0.0096 C.ar      1 <0>        -0.0755
      2 C2          1.1707    2.0857    0.0021 C.ar      1 <0>        -0.0780
      3 C3          2.3778    1.4105   -0.0131 C.ar      1 <0>        -0.0684
      4 C4          2.3961    0.0274   -0.0207 C.ar      1 <0>        -0.0774
      5 C5          1.2082   -0.6793   -0.0132 C.ar      1 <0>        -0.1126
      6 C6          0.0021   -0.0041    0.0020 C.ar      1 <0>        -0.1324
      7 C7         -1.2928   -0.7750    0.0103 C.3       1 <0>         0.1459
      8 H1         -2.0956   -0.1331    0.3729 H         1 <0>         0.1630
      9 C8         -1.6116   -1.2365   -1.3885 C.ar      1 <0>        -0.1374
     10 C9         -0.9896   -2.3617   -1.9011 C.ar      1 <0>        -0.0980
     11 C10        -1.2765   -2.7909   -3.1823 C.ar      1 <0>        -0.0856
     12 C11        -2.1905   -2.0918   -3.9551 C.ar      1 <0>         0.1034
     13 C12        -2.8181   -0.9582   -3.4393 C.ar      1 <0>         0.0508
     14 C13        -2.5273   -0.5379   -2.1508 C.ar      1 <0>        -0.0418
     15 O1         -3.6481   -0.4849   -4.4009 O.3       1 <0>        -0.2285
     16 C14        -3.5620   -1.2725   -5.4844 C.2       1 <0>         0.6411
     17 O2         -4.1824   -1.1148   -6.5183 O.2       1 <0>        -0.4553
     18 N1         -2.6811   -2.2650   -5.2490 N.am      1 <0>        -0.6455
     19 H2         -2.4337   -2.9709   -5.8666 H         1 <0>         0.4521
     20 N2         -1.1623   -1.9419    0.8931 N.4       1 <0>        -0.6353
     21 Br1         4.0026    2.3779   -0.0240 Br        1 <0>        -0.0149
     22 H3         -0.9592    1.9053    0.0260 H         1 <0>         0.1458
     23 H4          1.1559    3.1656    0.0077 H         1 <0>         0.1486
     24 H5          3.3384   -0.5003   -0.0329 H         1 <0>         0.1467
     25 H6          1.2224   -1.7592   -0.0191 H         1 <0>         0.1288
     26 H7         -0.2776   -2.9054   -1.2978 H         1 <0>         0.1360
     27 H8         -0.7897   -3.6687   -3.5810 H         1 <0>         0.1521
     28 H9         -3.0131    0.3372   -1.7449 H         1 <0>         0.1553
     29 H10        -0.4191   -2.5362    0.5574 H         1 <0>         0.4298
     30 H11        -0.9488   -1.6329    1.8296 H         1 <0>         0.4438
     31 H12        -2.0292   -2.4581    0.8986 H         1 <0>         0.4433
@<TRIPOS>BOND
     1    1    6 ar
     2    1    2 ar
     3    1   22 1
     4    2    3 ar
     5    2   23 1
     6    3    4 ar
     7    3   21 1
     8    4    5 ar
     9    4   24 1
    10    5    6 ar
    11    5   25 1
    12    6    7 1
    13    7    8 1
    14    7    9 1
    15    7   20 1
    16    9   14 ar
    17    9   10 ar
    18   10   11 ar
    19   10   26 1
    20   11   12 ar
    21   11   27 1
    22   12   18 1
    23   12   13 ar
    24   13   14 ar
    25   13   15 1
    26   14   28 1
    27   15   16 1
    28   16   17 2
    29   16   18 am
    30   18   19 1
    31   20   29 1
    32   20   30 1
    33   20   31 1
@<TRIPOS>MOLECULE
ZINC37581669
   40    40     0     0     0
SMALL
USER_CHARGES

@<TRIPOS>ATOM
      1 C1         -0.0187    1.5258    0.0104 C.3       1 <0>        -0.1853
      2 C2          0.0021   -0.0041    0.0020 C.3       1 <0>         0.1492
      3 H1          0.5123   -0.3556   -0.8948 H         1 <0>         0.0836
      4 C3         -1.4333   -0.5336    0.0129 C.3       1 <0>        -0.1006
      5 C4         -2.1868    0.0597    1.2050 C.3       1 <0>        -0.1576
      6 C5         -2.1352   -0.1312   -1.2857 C.3       1 <0>        -0.1485
      7 N1          0.7106   -0.4894    1.1889 N.pl3     1 <0>        -1.1058
      8 S1          2.3218   -0.8609    1.0971 S.o2      1 <0>         2.6930
      9 O1          2.7188   -1.2710    2.3985 O.2       1 <0>        -0.9304
     10 O2          2.4829   -1.6905   -0.0453 O.2       1 <0>        -0.9456
     11 C6          3.1835    0.6378    0.7566 C.ar      1 <0>        -0.7167
     12 C7          3.4059    1.0318   -0.5633 C.ar      1 <0>         0.1402
     13 C8          4.0888    2.2194   -0.8258 C.ar      1 <0>        -0.1562
     14 C9          4.5414    2.9996    0.2217 C.ar      1 <0>         0.1982
     15 C10         4.3184    2.6037    1.5301 C.ar      1 <0>        -0.1915
     16 C11         3.6353    1.4281    1.7964 C.ar      1 <0>         0.2447
     17 F1          3.4157    1.0506    3.0749 F         1 <0>        -0.0903
     18 F2          5.2030    4.1501   -0.0312 F         1 <0>        -0.1065
     19 C12         2.9352    0.2195   -1.6446 C.1       1 <0>        -0.0381
     20 C13         2.5493   -0.4465   -2.5311 C.1       1 <0>        -0.1934
     21 C14         2.0654   -1.2815   -3.6426 C.3       1 <0>         0.1342
     22 N2          2.4237   -0.6515   -4.9203 N.4       1 <0>        -0.6386
     23 H2          1.0039    1.9031    0.0027 H         1 <0>         0.0533
     24 H3         -0.5459    1.8868   -0.8726 H         1 <0>         0.0756
     25 H4         -0.5289    1.8773    0.9072 H         1 <0>         0.0772
     26 H5         -1.4190   -1.6203    0.0965 H         1 <0>         0.0829
     27 H6         -2.2011    1.1464    1.1214 H         1 <0>         0.0642
     28 H7         -3.2094   -0.3176    1.2127 H         1 <0>         0.0643
     29 H8         -1.6868   -0.2270    2.1301 H         1 <0>         0.0573
     30 H9         -1.5984   -0.5539   -2.1349 H         1 <0>         0.0502
     31 H10        -3.1578   -0.5085   -1.2779 H         1 <0>         0.0665
     32 H11        -2.1495    0.9555   -1.3693 H         1 <0>         0.0620
     33 H12         0.2360   -0.5931    2.0285 H         1 <0>         0.4260
     34 H13         4.2638    2.5287   -1.8457 H         1 <0>         0.1597
     35 H14         4.6743    3.2158    2.3456 H         1 <0>         0.1724
     36 H15         2.5247   -2.2681   -3.5825 H         1 <0>         0.1652
     37 H16         0.9818   -1.3806   -3.5776 H         1 <0>         0.1604
     38 H17         1.9985    0.2618   -4.9759 H         1 <0>         0.4383
     39 H18         3.4267   -0.5597   -4.9805 H         1 <0>         0.4400
     40 H19         2.0921   -1.2239   -5.6822 H         1 <0>         0.4468
@<TRIPOS>BOND
     1    1    2 1
     2    1   23 1
     3    1   24 1
     4    1   25 1
     5    2    3 1
     6    2    4 1
     7    2    7 1
     8    4    5 1
     9    4    6 1
    10    4   26 1
    11    5   27 1
    12    5   28 1
    13    5   29 1
    14    6   30 1
    15    6   31 1
    16    6   32 1
    17    7    8 1
    18    7   33 1
    19    8    9 2
    20    8   10 2
    21    8   11 1
    22   11   16 ar
    23   11   12 ar
    24   12   13 ar
    25   12   19 1
    26   13   14 ar
    27   13   34 1
    28   14   15 ar
    29   14   18 1
    30   15   16 ar
    31   15   35 1
    32   16   17 1
    33   19   20 3
    34   20   21 1
    35   21   22 1
    36   21   36 1
    37   21   37 1
    38   22   38 1
    39   22   39 1
    40   22   40 1
@<TRIPOS>MOLECULE
ZINC43290294
   28    29     0     0     0
SMALL
USER_CHARGES

@<TRIPOS>ATOM
      1 C1          0.8108   -0.3661   -1.2425 C.3       1 <0>        -0.1792
      2 C2         -0.0357   -0.0649   -0.0040 C.3       1 <0>         0.0490
      3 H1         -1.0145   -0.5324   -0.1105 H         1 <0>         0.1562
      4 C3          0.6627   -0.6210    1.2386 C.3       1 <0>        -0.0027
      5 H2          1.6725   -0.2154    1.2999 H         1 <0>         0.1481
      6 C4          0.7296   -2.1237    1.1470 C.2       1 <0>        -0.1964
      7 C5          1.8187   -2.9308    1.1409 C.2       1 <0>        -0.0603
      8 C6          1.6389   -4.2986    1.0476 C.2       1 <0>        -0.1380
      9 C7          0.3786   -4.7917    0.9651 C.2       1 <0>        -0.1079
     10 S1         -0.6051   -3.3031    1.0263 S.3       1 <0>         0.1101
     11 Br1         3.1283   -5.4637    1.0348 Br        1 <0>        -0.0136
     12 S2         -0.2706   -0.1465    2.7200 S.3       1 <0>        -0.0007
     13 C8          0.7606   -0.6560    4.0548 C.2       1 <0>         0.2517
     14 N1          0.5277   -0.4396    5.3675 N.pl3     1 <0>        -0.4509
     15 H3         -0.2324    0.0222    5.7549 H         1 <0>         0.4490
     16 N2          1.6048   -1.0159    6.0599 N.2       1 <0>        -0.2808
     17 C9          2.4029   -1.5315    5.1640 C.2       1 <0>         0.2202
     18 N3          1.8923   -1.3205    3.9505 N.2       1 <0>        -0.5193
     19 N4         -0.1996    1.3882    0.1355 N.4       1 <0>        -0.6370
     20 H4          0.9969   -1.4383   -1.3033 H         1 <0>         0.1140
     21 H5          0.2779   -0.0386   -2.1352 H         1 <0>         0.0978
     22 H6          1.7605    0.1641   -1.1712 H         1 <0>         0.0905
     23 H7          2.8118   -2.5118    1.2074 H         1 <0>         0.1490
     24 H8          0.0539   -5.8187    0.8874 H         1 <0>         0.2038
     25 H9          3.3269   -2.0502    5.3730 H         1 <0>         0.2292
     26 H10         0.7066    1.8210    0.2341 H         1 <0>         0.4385
     27 H11        -0.6601    1.7550   -0.6839 H         1 <0>         0.4447
     28 H12        -0.7578    1.5869    0.9522 H         1 <0>         0.4350
@<TRIPOS>BOND
     1    1    2 1
     2    1   20 1
     3    1   21 1
     4    1   22 1
     5    2    3 1
     6    2    4 1
     7    2   19 1
     8    4    5 1
     9    4    6 1
    10    4   12 1
    11    6   10 1
    12    6    7 2
    13    7    8 1
    14    7   23 1
    15    8    9 2
    16    8   11 1
    17    9   10 1
    18    9   24 1
    19   12   13 1
    20   13   18 2
    21   13   14 1
    22   14   15 1
    23   14   16 1
    24   16   17 2
    25   17   18 1
    26   17   25 1
    27   19   26 1
    28   19   27 1
    29   19   28 1
@<TRIPOS>MOLECULE
ZINC52094570
   41    43     0     0     0
SMALL
USER_CHARGES

@<TRIPOS>ATOM
      1 C1          0.6911   -0.4025    1.2385 C.3       1 <0>        -0.0591
      2 N1          0.0850   -0.2362   -0.0893 N.4       1 <0>        -0.5089
      3 C2         -1.3328   -0.6164   -0.0315 C.3       1 <0>         0.0787
      4 H1         -1.8310   -0.0436    0.7506 H         1 <0>         0.1570
      5 C3         -1.4462   -2.0878    0.2740 C.ar      1 <0>        -0.0928
      6 C4         -0.3675   -2.9216    0.0513 C.ar      1 <0>        -0.1179
      7 C5         -0.4718   -4.2750    0.3323 C.ar      1 <0>         0.1271
      8 C6         -1.6668   -4.7904    0.8393 C.ar      1 <0>         0.1227
      9 C7         -2.7442   -3.9466    1.0597 C.ar      1 <0>        -0.0583
     10 C8         -2.6293   -2.5974    0.7820 C.ar      1 <0>        -0.0667
     11 Br1        -4.0959   -1.4442    1.0902 Br        1 <0>        -0.0051
     12 N2         -1.4713   -6.1577    1.0190 N.am      1 <0>        -0.6354
     13 H2         -2.1281   -6.7851    1.3596 H         1 <0>         0.4469
     14 C9         -0.2157   -6.4604    0.6389 C.2       1 <0>         0.6872
     15 O1          0.2766   -7.5729    0.6691 O.2       1 <0>        -0.5199
     16 N3          0.4125   -5.3458    0.2198 N.am      1 <0>        -0.6382
     17 H3          1.3250   -5.2966   -0.1054 H         1 <0>         0.4433
     18 C10        -1.9949   -0.3228   -1.3792 C.3       1 <0>        -0.1102
     19 C11        -1.2061   -1.0103   -2.4955 C.3       1 <0>        -0.1296
     20 C12        -1.8683   -0.7166   -3.8431 C.3       1 <0>        -0.1197
     21 C13        -1.8838    0.7940   -4.0854 C.3       1 <0>        -0.1267
     22 C14        -2.6726    1.4814   -2.9691 C.3       1 <0>        -0.1214
     23 C15        -2.0105    1.1878   -1.6214 C.3       1 <0>        -0.1246
     24 H4          1.7545   -0.1693    1.1842 H         1 <0>         0.1315
     25 H5          0.2071    0.2710    1.9458 H         1 <0>         0.1300
     26 H6          0.5614   -1.4325    1.5706 H         1 <0>         0.1265
     27 H7          0.1632    0.7280   -0.3763 H         1 <0>         0.4342
     28 H8          0.5550   -2.5200   -0.3412 H         1 <0>         0.1340
     29 H9         -3.6698   -4.3416    1.4517 H         1 <0>         0.1578
     30 H10        -3.0175   -0.7001   -1.3714 H         1 <0>         0.1252
     31 H11        -0.1835   -0.6330   -2.5032 H         1 <0>         0.0555
     32 H12        -1.1950   -2.0864   -2.3229 H         1 <0>         0.0804
     33 H13        -1.3063   -1.2064   -4.6384 H         1 <0>         0.0736
     34 H14        -2.8909   -1.0939   -3.8354 H         1 <0>         0.0727
     35 H15        -0.8612    1.1713   -4.0931 H         1 <0>         0.0634
     36 H16        -2.3555    1.0032   -5.0455 H         1 <0>         0.0734
     37 H17        -2.6837    2.5576   -3.1417 H         1 <0>         0.0753
     38 H18        -3.6952    1.1041   -2.9613 H         1 <0>         0.0730
     39 H19        -2.5724    1.6775   -0.8261 H         1 <0>         0.0820
     40 H20        -0.9879    1.5651   -1.6291 H         1 <0>         0.0587
     41 H21         0.5643   -0.8249   -0.7539 H         1 <0>         0.4241
@<TRIPOS>BOND
     1    1    2 1
     2    1   24 1
     3    1   25 1
     4    1   26 1
     5    2    3 1
     6    2   27 1
     7    2   41 1
     8    3    4 1
     9    3    5 1
    10    3   18 1
    11    5   10 ar
    12    5    6 ar
    13    6    7 ar
    14    6   28 1
    15    7   16 1
    16    7    8 ar
    17    8    9 ar
    18    8   12 1
    19    9   10 ar
    20    9   29 1
    21   10   11 1
    22   12   13 1
    23   12   14 am
    24   14   15 2
    25   14   16 am
    26   16   17 1
    27   18   23 1
    28   18   19 1
    29   18   30 1
    30   19   20 1
    31   19   31 1
    32   19   32 1
    33   20   21 1
    34   20   33 1
    35   20   34 1
    36   21   22 1
    37   21   35 1
    38   21   36 1
    39   22   23 1
    40   22   37 1
    41   22   38 1
    42   23   39 1
    43   23   40 1
@<TRIPOS>MOLECULE
ZINC67122049
   46    48     0     0     0
SMALL
USER_CHARGES

@<TRIPOS>ATOM
      1 C1         -0.0173    1.4248    0.0099 C.3       1 <0>         0.0187
      2 O1          0.0021   -0.0041    0.0020 O.3       1 <0>        -0.2971
      3 C2          0.6062   -0.6075   -1.0564 C.ar      1 <0>         0.1425
      4 C3          1.1729    0.1590   -2.0621 C.ar      1 <0>        -0.1962
      5 C4          1.7870   -0.4560   -3.1371 C.ar      1 <0>        -0.0559
      6 C5          1.8372   -1.8356   -3.2121 C.ar      1 <0>        -0.1951
      7 C6          1.2734   -2.6062   -2.2124 C.ar      1 <0>        -0.0810
      8 C7          0.6617   -1.9961   -1.1290 C.ar      1 <0>         0.0817
      9 O2          0.1119   -2.7526   -0.1417 O.3       1 <0>        -0.4810
     10 C8          2.5075   -2.5009   -4.3865 C.3       1 <0>         0.0526
     11 N1          3.9297   -2.7104   -4.0844 N.4       1 <0>        -0.5063
     12 C9          4.5831   -3.3589   -5.2292 C.3       1 <0>        -0.0437
     13 C10         6.0644   -3.5771   -4.9145 C.3       1 <0>         0.1351
     14 H1          6.5202   -2.6273   -4.6347 H         1 <0>         0.1294
     15 C11         6.7606   -4.1290   -6.1318 C.ar      1 <0>        -0.1394
     16 C12         6.6497   -5.4860   -6.4298 C.ar      1 <0>        -0.1202
     17 C13         7.2660   -6.0164   -7.5211 C.ar      1 <0>        -0.0856
     18 C14         8.0261   -5.1861   -8.3625 C.ar      1 <0>        -0.0443
     19 C15         8.6765   -5.6974   -9.4986 C.ar      1 <0>        -0.1087
     20 C16         9.4036   -4.8631  -10.2907 C.ar      1 <0>        -0.1019
     21 C17         9.5142   -3.5061   -9.9929 C.ar      1 <0>        -0.1048
     22 C18         8.8983   -2.9758   -8.9013 C.ar      1 <0>        -0.1084
     23 C19         8.1385   -3.8062   -8.0598 C.ar      1 <0>        -0.0541
     24 C20         7.4835   -3.2938   -6.9268 C.ar      1 <0>        -0.0757
     25 O3          6.1904   -4.5028   -3.8332 O.3       1 <0>        -0.5465
     26 H2          1.0053    1.8021    0.0021 H         1 <0>         0.0630
     27 H3         -0.5445    1.7859   -0.8732 H         1 <0>         0.0633
     28 H4         -0.5275    1.7763    0.9067 H         1 <0>         0.1129
     29 H5          1.1344    1.2368   -2.0063 H         1 <0>         0.1460
     30 H6          2.2283    0.1425   -3.9203 H         1 <0>         0.1376
     31 H7          1.3136   -3.6837   -2.2735 H         1 <0>         0.1447
     32 H8         -0.8162   -2.9794   -0.2906 H         1 <0>         0.3984
     33 H9          2.0316   -3.4623   -4.5797 H         1 <0>         0.1375
     34 H10         2.4129   -1.8652   -5.2669 H         1 <0>         0.1387
     35 H11         4.3702   -1.8204   -3.9055 H         1 <0>         0.4276
     36 H12         4.1073   -4.3203   -5.4224 H         1 <0>         0.1376
     37 H13         4.4885   -2.7232   -6.1095 H         1 <0>         0.1445
     38 H14         6.0662   -6.1262   -5.7848 H         1 <0>         0.1216
     39 H15         7.1718   -7.0700   -7.7392 H         1 <0>         0.1348
     40 H16         8.5999   -6.7469   -9.7416 H         1 <0>         0.1333
     41 H17         9.9027   -5.2587  -11.1630 H         1 <0>         0.1311
     42 H18        10.0978   -2.8658  -10.6378 H         1 <0>         0.1306
     43 H19         8.9931   -1.9224   -8.6828 H         1 <0>         0.1311
     44 H20         7.5567   -2.2435   -6.6861 H         1 <0>         0.1312
     45 H21         5.8057   -5.3717   -4.0124 H         1 <0>         0.3886
     46 H22         4.0173   -3.2989   -3.2695 H         1 <0>         0.4319
@<TRIPOS>BOND
     1    1    2 1
     2    1   26 1
     3    1   27 1
     4    1   28 1
     5    2    3 1
     6    3    8 ar
     7    3    4 ar
     8    4    5 ar
     9    4   29 1
    10    5    6 ar
    11    5   30 1
    12    6    7 ar
    13    6   10 1
    14    7    8 ar
    15    7   31 1
    16    8    9 1
    17    9   32 1
    18   10   11 1
    19   10   33 1
    20   10   34 1
    21   11   12 1
    22   11   35 1
    23   11   46 1
    24   12   13 1
    25   12   36 1
    26   12   37 1
    27   13   14 1
    28   13   15 1
    29   13   25 1
    30   15   24 ar
    31   15   16 ar
    32   16   17 ar
    33   16   38 1
    34   17   18 ar
    35   17   39 1
    36   18   23 ar
    37   18   19 ar
    38   19   20 ar
    39   19   40 1
    40   20   21 ar
    41   20   41 1
    42   21   22 ar
    43   21   42 1
    44   22   23 ar
    45   22   43 1
    46   23   24 ar
    47   24   44 1
    48   25   45 1
@<TRIPOS>MOLECULE
ZINC13119776
   63    66     0     0     0
SMALL
USER_CHARGES
4-chloro-3-(cyclopropylsulfamoyl)-N-[[1-(1-piperidyl)cyclohexyl]methyl]benzamide
@<TRIPOS>ATOM
      1 C1          4.4966   -3.4211   -1.1371 C.ar      1 <0>        -0.0252
      2 C2          4.9945   -3.5329   -2.4185 C.ar      1 <0>        -0.1311
      3 C3          5.2171   -4.7830   -2.9712 C.ar      1 <0>         0.0855
      4 C4          4.9478   -5.9280   -2.2393 C.ar      1 <0>        -0.6775
      5 C5          4.4556   -5.8289   -0.9552 C.ar      1 <0>         0.0546
      6 C6          4.2288   -4.5712   -0.3927 C.ar      1 <0>        -0.1618
      7 C7          3.7015   -4.4581    0.9833 C.2       1 <0>         0.5708
      8 O1          3.4643   -5.4613    1.6276 O.2       1 <0>        -0.4979
      9 N1          3.4835   -3.2429    1.5237 N.am      1 <0>        -0.7472
     10 C8          2.9607   -3.1308    2.8876 C.3       1 <0>         0.0982
     11 C9          2.8065   -1.6536    3.2549 C.3       1 <0>         0.0509
     12 C10         2.2606   -1.5365    4.6794 C.3       1 <0>        -0.1261
     13 C11         3.2315   -2.2058    5.6543 C.3       1 <0>        -0.1229
     14 C12         4.5941   -1.5148    5.5719 C.3       1 <0>        -0.1300
     15 C13         5.1400   -1.6319    4.1474 C.3       1 <0>        -0.1197
     16 C14         4.1691   -0.9626    3.1726 C.3       1 <0>        -0.1354
     17 C15         0.5529   -1.6495    2.3707 C.3       1 <0>        -0.0126
     18 C16        -0.3459   -1.0538    1.2848 C.3       1 <0>        -0.1449
     19 C17        -0.4783    0.4550    1.5097 C.3       1 <0>        -0.1387
     20 C18         0.9155    1.0889    1.4994 C.3       1 <0>        -0.1457
     21 C19         1.7778    0.4310    2.5791 C.3       1 <0>        -0.0108
     22 S1          5.2352   -7.5142   -2.9508 S.o2      1 <0>         2.6904
     23 O2          4.9134   -8.4719   -1.9515 O.2       1 <0>        -0.9378
     24 O3          4.6110   -7.5059   -4.2273 O.2       1 <0>        -0.9313
     25 N2          6.8640   -7.6416   -3.2212 N.pl3     1 <0>        -1.0800
     26 C20         7.7964   -7.6422   -2.0912 C.3       1 <0>         0.0735
     27 C21         9.1666   -6.9961   -2.3054 C.3       1 <0>        -0.1867
     28 C22         9.0456   -8.5181   -2.2065 C.3       1 <0>        -0.1780
     29 Cl1         5.8365   -4.9158   -4.5875 Cl        1 <0>        -0.0155
     30 H1          4.3186   -2.4457   -0.7090 H         1 <0>         0.1357
     31 H2          5.2063   -2.6438   -2.9938 H         1 <0>         0.1557
     32 H3          4.2457   -6.7222   -0.3858 H         1 <0>         0.1696
     33 H4          3.6727   -2.4424    1.0095 H         1 <0>         0.3924
     34 H5          3.6524   -3.6076    3.5821 H         1 <0>         0.1226
     35 H6          1.9900   -3.6231    2.9463 H         1 <0>         0.0986
     36 H7          2.1507   -0.4841    4.9411 H         1 <0>         0.0941
     37 H8          1.2898   -2.0288    4.7381 H         1 <0>         0.0911
     38 H9          3.3414   -3.2582    5.3926 H         1 <0>         0.0777
     39 H10         2.8426   -2.1224    6.6691 H         1 <0>         0.0895
     40 H11         5.2858   -1.9916    6.2664 H         1 <0>         0.0822
     41 H12         4.4842   -0.4624    5.8336 H         1 <0>         0.0720
     42 H13         5.2499   -2.6843    3.8858 H         1 <0>         0.0765
     43 H14         6.1108   -1.1396    4.0888 H         1 <0>         0.0874
     44 H15         4.5580   -1.0460    2.1578 H         1 <0>         0.0816
     45 H16         4.0592    0.0898    3.4343 H         1 <0>         0.0959
     46 H17         0.1041   -1.4766    3.3489 H         1 <0>         0.1355
     47 H18         0.6608   -2.7215    2.2052 H         1 <0>         0.1290
     48 H19        -1.3314   -1.5168    1.3336 H         1 <0>         0.1139
     49 H20         0.0954   -1.2384    0.3054 H         1 <0>         0.0857
     50 H21        -1.0823    0.8904    0.7136 H         1 <0>         0.0953
     51 H22        -0.9551    0.6394    2.4723 H         1 <0>         0.0830
     52 H23         1.3767    0.9380    0.5233 H         1 <0>         0.0859
     53 H24         0.8312    2.1567    1.7015 H         1 <0>         0.1138
     54 H25         1.3232    0.5941    3.5562 H         1 <0>         0.1340
     55 H26         2.7753    0.8702    2.5648 H         1 <0>         0.1311
     56 H27         7.2008   -7.7157   -4.1279 H         1 <0>         0.4242
     57 H28         7.3410   -7.5424   -1.1059 H         1 <0>         0.1356
     58 H29         9.3743   -6.5704   -3.2871 H         1 <0>         0.1018
     59 H30         9.6128   -6.4707   -1.4610 H         1 <0>         0.1041
     60 H31         9.4122   -8.9941   -1.2971 H         1 <0>         0.1079
     61 H32         9.1735   -9.0940   -3.1230 H         1 <0>         0.1040
     62 N3          1.8860   -1.0150    2.2916 N.4       1 <0>        -0.3898
     63 H33         2.2580   -1.1389    1.3427 H         1 <0>         0.4153
@<TRIPOS>BOND
     1    1    6 ar
     2    1    2 ar
     3    1   30 1
     4    2    3 ar
     5    2   31 1
     6    3    4 ar
     7    3   29 1
     8    4    5 ar
     9    4   22 1
    10    5    6 ar
    11    5   32 1
    12    6    7 1
    13    7    8 2
    14    7    9 am
    15    9   10 1
    16    9   33 1
    17   10   11 1
    18   10   34 1
    19   10   35 1
    20   11   16 1
    21   11   12 1
    22   11   62 1
    23   12   13 1
    24   12   36 1
    25   12   37 1
    26   13   14 1
    27   13   38 1
    28   13   39 1
    29   14   15 1
    30   14   40 1
    31   14   41 1
    32   15   16 1
    33   15   42 1
    34   15   43 1
    35   16   44 1
    36   16   45 1
    37   17   18 1
    38   17   46 1
    39   17   47 1
    40   17   62 1
    41   18   19 1
    42   18   48 1
    43   18   49 1
    44   19   20 1
    45   19   50 1
    46   19   51 1
    47   20   21 1
    48   20   52 1
    49   20   53 1
    50   21   54 1
    51   21   55 1
    52   21   62 1
    53   22   23 2
    54   22   24 2
    55   22   25 1
    56   25   26 1
    57   25   56 1
    58   26   28 1
    59   26   27 1
    60   26   57 1
    61   27   28 1
    62   27   58 1
    63   27   59 1
    64   28   60 1
    65   28   61 1
    66   62   63 1
@<TRIPOS>MOLECULE
ZINC22227574
   53    56     0     0     0
SMALL
USER_CHARGES
[2-(2,3-dimethoxyphenyl)thiazol-4-yl]methyl 3-amino-4,6-dimethyl-thieno[5,4-b]pyridine-2-carboxylate
@<TRIPOS>ATOM
      1 C1         -3.0199    3.1972    1.7137 C.3       1 <0>        -0.1687
      2 C2         -1.6629    2.5641    1.5439 C.ar      1 <0>         0.1085
      3 C3         -1.5101    1.2015    1.6502 C.ar      1 <0>        -0.1739
      4 C4         -0.2593    0.6220    1.4992 C.ar      1 <0>         0.2398
      5 N1          0.7966    1.3689    1.2415 N.ar      1 <0>        -0.4506
      6 C5          0.7010    2.6758    1.1251 C.ar      1 <0>         0.0823
      7 C6         -0.5261    3.3631    1.2665 C.ar      1 <0>        -0.1611
      8 C7         -0.4480    4.8069    1.1063 C.2       1 <0>         0.3281
      9 C8          0.7817    5.3691    0.8375 C.2       1 <0>        -0.3426
     10 S1          1.8767    3.9641    0.7918 S.3       1 <0>         0.2791
     11 C9          1.0984    6.7345    0.6442 C.2       1 <0>         0.5735
     12 O1          0.2228    7.5774    0.7093 O.2       1 <0>        -0.5069
     13 O2          2.3715    7.1023    0.3876 O.3       1 <0>        -0.3460
     14 C10         2.6191    8.4975    0.2032 C.3       1 <0>         0.1447
     15 C11         4.0848    8.7156   -0.0713 C.2       1 <0>         0.0470
     16 C12         4.9349    7.6561   -0.1100 C.2       1 <0>        -0.2022
     17 S2          6.4803    8.4852   -0.4603 S.3       1 <0>         0.0797
     18 C13         5.8271   10.1487   -0.5169 C.2       1 <0>         0.1637
     19 N2          4.5414    9.9289   -0.2788 N.2       1 <0>        -0.4922
     20 C14         6.5298   11.4242   -0.7682 C.ar      1 <0>        -0.0055
     21 C15         5.8198   12.6266   -0.7745 C.ar      1 <0>        -0.0937
     22 C16         6.4794   13.8157   -1.0041 C.ar      1 <0>        -0.0818
     23 C17         7.8433   13.8235   -1.2404 C.ar      1 <0>        -0.1753
     24 C18         8.5593   12.6370   -1.2422 C.ar      1 <0>         0.1164
     25 C19         7.9077   11.4319   -1.0064 C.ar      1 <0>         0.0871
     26 O3          8.6067   10.2663   -1.0079 O.3       1 <0>        -0.3185
     27 C20         8.7252    9.5824   -2.2570 C.3       1 <0>         0.0266
     28 O4          9.8993   12.6517   -1.4742 O.3       1 <0>        -0.3029
     29 C21        10.5032   13.9254   -1.7088 C.3       1 <0>         0.0188
     30 N3         -1.5816    5.5976    1.2216 N.pl3     1 <0>        -0.8300
     31 C22        -0.1067   -0.8721    1.6243 C.3       1 <0>        -0.1489
     32 H1         -3.7656    2.4158    1.9218 H         1 <0>         0.1135
     33 H2         -3.2942    3.7294    0.7909 H         1 <0>         0.1124
     34 H3         -2.9903    3.9085    2.5523 H         1 <0>         0.1123
     35 H4         -2.3685    0.5795    1.8567 H         1 <0>         0.1893
     36 H5          2.0279    8.8654   -0.6483 H         1 <0>         0.0952
     37 H6          2.3311    9.0444    1.1131 H         1 <0>         0.0954
     38 H7          4.7332    6.6046    0.0321 H         1 <0>         0.1985
     39 H8          4.7548   12.6257   -0.5954 H         1 <0>         0.1434
     40 H9          5.9285   14.7446   -1.0040 H         1 <0>         0.1409
     41 H10         8.3518   14.7585   -1.4238 H         1 <0>         0.1420
     42 H11         9.3104    8.6616   -2.1168 H         1 <0>         0.1029
     43 H12         9.2334   10.2327   -2.9843 H         1 <0>         0.0560
     44 H13         7.7230    9.3265   -2.6314 H         1 <0>         0.0459
     45 H14        11.5817   13.7937   -1.8808 H         1 <0>         0.1077
     46 H15        10.3479   14.5718   -0.8324 H         1 <0>         0.0610
     47 H16        10.0449   14.3910   -2.5938 H         1 <0>         0.0597
     48 H17        -1.5065    6.6880    1.0978 H         1 <0>         0.4605
     49 H18        -2.5558    5.1343    1.4368 H         1 <0>         0.4272
     50 H19         0.9480   -1.1467    1.4754 H         1 <0>         0.0995
     51 H20        -0.7260   -1.3689    0.8629 H         1 <0>         0.1273
     52 H21        -0.4308   -1.1912    2.6259 H         1 <0>         0.1273
     53 H22         1.7846    0.9010    1.1190 H         1 <0>         0.4872
@<TRIPOS>BOND
     1    1    2 1
     2    1   32 1
     3    1   33 1
     4    1   34 1
     5    2    7 ar
     6    2    3 ar
     7    3    4 ar
     8    3   35 1
     9    4    5 ar
    10    4   31 1
    11    5    6 ar
    12    5   53 1
    13    6   10 1
    14    6    7 ar
    15    7    8 1
    16    8    9 2
    17    8   30 1
    18    9   10 1
    19    9   11 1
    20   11   12 2
    21   11   13 1
    22   13   14 1
    23   14   15 1
    24   14   36 1
    25   14   37 1
    26   15   19 1
    27   15   16 2
    28   16   17 1
    29   16   38 1
    30   17   18 1
    31   18   19 2
    32   18   20 1
    33   20   25 ar
    34   20   21 ar
    35   21   22 ar
    36   21   39 1
    37   22   23 ar
    38   22   40 1
    39   23   24 ar
    40   23   41 1
    41   24   25 ar
    42   24   28 1
    43   25   26 1
    44   26   27 1
    45   27   42 1
    46   27   43 1
    47   27   44 1
    48   28   29 1
    49   29   45 1
    50   29   46 1
    51   29   47 1
    52   30   48 1
    53   30   49 1
    54   31   50 1
    55   31   51 1
    56   31   52 1
@<TRIPOS>MOLECULE
ZINC21869850
   62    64     0     0     0
SMALL
USER_CHARGES

@<TRIPOS>ATOM
      1 C1         -1.8717    2.0292   -0.2299 C.3       1 <0>        -0.1186
      2 C2         -1.9470    0.5336   -0.0611 C.ar      1 <0>        -0.0669
      3 C3         -2.1616   -0.2759   -1.1618 C.ar      1 <0>        -0.1227
      4 C4         -2.2319   -1.6485   -1.0114 C.ar      1 <0>        -0.0901
      5 C5         -2.0875   -2.2160    0.2396 C.ar      1 <0>        -0.1590
      6 C6         -1.8714   -1.4061    1.3471 C.ar      1 <0>         0.1369
      7 C7         -1.7962   -0.0275    1.1916 C.ar      1 <0>        -0.1300
      8 N1         -1.7250   -1.9766    2.6136 N.pl3     1 <0>        -1.0535
      9 S1         -0.7576   -3.3053    2.8163 S.o2      1 <0>         2.6915
     10 O1         -0.7935   -3.6265    4.2001 O.2       1 <0>        -0.9524
     11 O2         -1.1289   -4.2356    1.8085 O.2       1 <0>        -0.9367
     12 C8          0.8940   -2.8069    2.4577 C.ar      1 <0>        -0.6903
     13 C9          1.3777   -2.8996    1.1645 C.ar      1 <0>         0.0231
     14 C10         2.6730   -2.5099    0.8744 C.ar      1 <0>        -0.1434
     15 C11         3.4915   -2.0263    1.8743 C.ar      1 <0>         0.0414
     16 C12         3.0099   -1.9303    3.1806 C.ar      1 <0>        -0.1699
     17 C13         1.7000   -2.3198    3.4655 C.ar      1 <0>         0.0195
     18 C14         3.8816   -1.4134    4.2571 C.2       1 <0>         0.5731
     19 O3          4.9799   -0.9674    3.9884 O.2       1 <0>        -0.5117
     20 N2          3.4584   -1.4368    5.5365 N.am      1 <0>        -0.7276
     21 C15         4.3221   -0.9247    6.6032 C.3       1 <0>         0.1057
     22 C16         3.6675   -1.1890    7.9606 C.3       1 <0>         0.0649
     23 H1          2.6663   -0.7581    7.9712 H         1 <0>         0.1500
     24 C17         3.5773   -2.6751    8.1939 C.ar      1 <0>        -0.1458
     25 C18         4.6849   -3.3737    8.6368 C.ar      1 <0>        -0.1210
     26 C19         4.6022   -4.7368    8.8508 C.ar      1 <0>        -0.1005
     27 C20         3.4117   -5.4013    8.6224 C.ar      1 <0>        -0.0891
     28 C21         2.3039   -4.7026    8.1804 C.ar      1 <0>        -0.0989
     29 C22         2.3854   -3.3387    7.9705 C.ar      1 <0>        -0.0927
     30 N3          4.4761   -0.5748    9.0222 N.4       1 <0>        -0.3808
     31 C23         4.5696    0.8729    8.7910 C.3       1 <0>        -0.0558
     32 C24         3.8441   -0.8230   10.3248 C.3       1 <0>        -0.0488
     33 C25         4.9026   -1.6033    1.5566 C.3       1 <0>        -0.1346
     34 H2         -0.8396    2.3214   -0.4233 H         1 <0>         0.0731
     35 H3         -2.4984    2.3322   -1.0686 H         1 <0>         0.0721
     36 H4         -2.2226    2.5157    0.6802 H         1 <0>         0.0675
     37 H5         -2.2749    0.1653   -2.1411 H         1 <0>         0.1285
     38 H6         -2.4003   -2.2777   -1.8729 H         1 <0>         0.1338
     39 H7         -2.1428   -3.2882    0.3566 H         1 <0>         0.1577
     40 H8         -1.6243    0.6048    2.0500 H         1 <0>         0.1260
     41 H9         -2.1899   -1.5945    3.3743 H         1 <0>         0.4273
     42 H10         0.7413   -3.2781    0.3783 H         1 <0>         0.1506
     43 H11         3.0444   -2.5848   -0.1370 H         1 <0>         0.1477
     44 H12         1.3199   -2.2438    4.4735 H         1 <0>         0.1364
     45 H13         2.5819   -1.7927    5.7510 H         1 <0>         0.4052
     46 H14         5.2881   -1.4278    6.5616 H         1 <0>         0.0959
     47 H15         4.4651    0.1479    6.4715 H         1 <0>         0.0948
     48 H16         5.6149   -2.8545    8.8153 H         1 <0>         0.1192
     49 H17         5.4677   -5.2827    9.1962 H         1 <0>         0.1367
     50 H18         3.3473   -6.4665    8.7890 H         1 <0>         0.1376
     51 H19         1.3739   -5.2219    8.0017 H         1 <0>         0.1409
     52 H20         1.5189   -2.7922    7.6288 H         1 <0>         0.1336
     53 H21         3.5683    1.2877    8.6753 H         1 <0>         0.1261
     54 H22         5.0626    1.3453    9.6406 H         1 <0>         0.1318
     55 H23         5.1471    1.0597    7.8857 H         1 <0>         0.1273
     56 H24         4.4441   -0.3673   11.1125 H         1 <0>         0.1292
     57 H25         2.8444   -0.3886   10.3322 H         1 <0>         0.1247
     58 H26         3.7748   -1.8972   10.4963 H         1 <0>         0.1260
     59 H27         4.9327   -0.5246    1.4031 H         1 <0>         0.0883
     60 H28         5.5575   -1.8706    2.3860 H         1 <0>         0.0994
     61 H29         5.2383   -2.1087    0.6511 H         1 <0>         0.0717
     62 H30         5.4015   -0.9769    9.0153 H         1 <0>         0.4255
@<TRIPOS>BOND
     1    1    2 1
     2    1   34 1
     3    1   35 1
     4    1   36 1
     5    2    7 ar
     6    2    3 ar
     7    3    4 ar
     8    3   37 1
     9    4    5 ar
    10    4   38 1
    11    5    6 ar
    12    5   39 1
    13    6    7 ar
    14    6    8 1
    15    7   40 1
    16    8    9 1
    17    8   41 1
    18    9   10 2
    19    9   11 2
    20    9   12 1
    21   12   17 ar
    22   12   13 ar
    23   13   14 ar
    24   13   42 1
    25   14   15 ar
    26   14   43 1
    27   15   16 ar
    28   15   33 1
    29   16   17 ar
    30   16   18 1
    31   17   44 1
    32   18   19 2
    33   18   20 am
    34   20   21 1
    35   20   45 1
    36   21   22 1
    37   21   46 1
    38   21   47 1
    39   22   23 1
    40   22   24 1
    41   22   30 1
    42   24   29 ar
    43   24   25 ar
    44   25   26 ar
    45   25   48 1
    46   26   27 ar
    47   26   49 1
    48   27   28 ar
    49   27   50 1
    50   28   29 ar
    51   28   51 1
    52   29   52 1
    53   30   31 1
    54   30   32 1
    55   30   62 1
    56   31   53 1
    57   31   54 1
    58   31   55 1
    59   32   56 1
    60   32   57 1
    61   32   58 1
    62   33   59 1
    63   33   60 1
    64   33   61 1
@<TRIPOS>MOLECULE
ZINC43525497
   71    74     0     0     0
SMALL
USER_CHARGES

@<TRIPOS>ATOM
      1 C1         -0.7838    1.7943   -0.1617 C.3       1 <0>        -0.1484
      2 C2         -0.6390    0.2712   -0.1696 C.3       1 <0>        -0.1090
      3 C3          0.1938   -0.1682    1.0363 C.3       1 <0>        -0.1531
      4 C4         -2.0247   -0.3732   -0.0945 C.3       1 <0>         0.1214
      5 N1         -1.8948   -1.8269   -0.2222 N.pl3     1 <0>        -0.6696
      6 C5         -2.9928   -2.6075   -0.1842 C.2       1 <0>         0.5488
      7 S1         -4.5394   -1.9003    0.0132 S.2       1 <0>        -0.5899
      8 N2         -2.8733   -3.9448   -0.3016 N.pl3     1 <0>        -0.7191
      9 C6         -4.0668   -4.7933   -0.2603 C.3       1 <0>         0.1077
     10 C7         -3.6561   -6.2591   -0.4145 C.3       1 <0>         0.0168
     11 H1         -3.0579   -6.5595    0.4458 H         1 <0>         0.1456
     12 C8         -4.9104   -7.1325   -0.4907 C.3       1 <0>        -0.1277
     13 C9         -4.9111   -7.8819   -1.8296 C.3       1 <0>        -0.0886
     14 H2         -5.7921   -8.5194   -1.9051 H         1 <0>         0.1215
     15 C10        -4.9046   -6.8476   -2.9630 C.3       1 <0>        -0.1426
     16 C11        -3.6634   -5.9643   -2.8180 C.3       1 <0>        -0.0037
     17 N3         -2.8635   -6.4158   -1.6363 N.4       1 <0>        -0.3847
     18 C12        -2.4228   -7.8042   -1.7905 C.3       1 <0>         0.0001
     19 C13        -3.6339   -8.7283   -1.9112 C.3       1 <0>        -0.0321
     20 H3         -3.6238   -9.4536   -1.0976 H         1 <0>         0.1190
     21 C14        -3.5889   -9.4485   -3.2342 C.2       1 <0>         0.0711
     22 C15        -3.1128   -8.9480   -4.3951 C.2       1 <0>        -0.2637
     23 C16        -3.2539   -9.9415   -5.3835 C.2       1 <0>         0.1446
     24 N4         -3.7986  -10.9990   -4.8201 N.2       1 <0>        -0.2742
     25 N5         -4.0122  -10.7096   -3.4663 N.pl3     1 <0>        -0.3576
     26 C17        -4.5958  -11.6167   -2.4750 C.3       1 <0>         0.0919
     27 C18        -2.8590   -9.8176   -6.8086 C.ar      1 <0>        -0.0976
     28 C19        -2.2849   -8.6356   -7.2734 C.ar      1 <0>        -0.0422
     29 C20        -1.9182   -8.5226   -8.5977 C.ar      1 <0>        -0.1997
     30 C21        -2.1212   -9.5863   -9.4692 C.ar      1 <0>         0.2334
     31 C22        -2.6940  -10.7658   -9.0078 C.ar      1 <0>        -0.1989
     32 C23        -3.0563  -10.8850   -7.6828 C.ar      1 <0>        -0.0343
     33 N6         -1.7496   -9.4697  -10.8099 N.pl3     1 <0>        -0.6317
     34 C24        -1.1463   -8.2269  -11.2974 C.3       1 <0>         0.0910
     35 C25        -1.9631  -10.5901  -11.7293 C.3       1 <0>         0.0862
     36 H4          0.2033    2.2534   -0.2152 H         1 <0>         0.0667
     37 H5         -1.3771    2.1073   -1.0209 H         1 <0>         0.0631
     38 H6         -1.2808    2.1073    0.7565 H         1 <0>         0.0642
     39 H7         -0.1420   -0.0418   -1.0878 H         1 <0>         0.0765
     40 H8         -0.3032    0.1448    1.9546 H         1 <0>         0.0636
     41 H9          0.2969   -1.2533    1.0307 H         1 <0>         0.0459
     42 H10         1.1809    0.2909    0.9829 H         1 <0>         0.0656
     43 H11        -2.4860   -0.1324    0.8632 H         1 <0>         0.0949
     44 H12        -2.6472    0.0084   -0.9039 H         1 <0>         0.0942
     45 H13        -1.0185   -2.2275   -0.3340 H         1 <0>         0.3973
     46 H14        -1.9970   -4.3455   -0.4134 H         1 <0>         0.3856
     47 H15        -4.5765   -4.6572    0.6935 H         1 <0>         0.1311
     48 H16        -4.7377   -4.5165   -1.0735 H         1 <0>         0.1144
     49 H17        -4.9060   -7.8503    0.3296 H         1 <0>         0.1102
     50 H18        -5.7981   -6.5036   -0.4236 H         1 <0>         0.1153
     51 H19        -4.8780   -7.3599   -3.9248 H         1 <0>         0.1113
     52 H20        -5.8012   -6.2310   -2.9000 H         1 <0>         0.1071
     53 H21        -3.0503   -6.0520   -3.7149 H         1 <0>         0.1308
     54 H22        -3.9710   -4.9262   -2.6922 H         1 <0>         0.1365
     55 H23        -1.8114   -7.8919   -2.6887 H         1 <0>         0.1428
     56 H24        -1.8309   -8.0944   -0.9224 H         1 <0>         0.1389
     57 H25        -2.6980   -7.9614   -4.5397 H         1 <0>         0.1415
     58 H26        -5.6777  -11.4855   -2.4550 H         1 <0>         0.0820
     59 H27        -4.3595  -12.6468   -2.7415 H         1 <0>         0.0983
     60 H28        -4.1844  -11.3925   -1.4908 H         1 <0>         0.0870
     61 H29        -2.1277   -7.8087   -6.5967 H         1 <0>         0.1184
     62 H30        -1.4733   -7.6069   -8.9582 H         1 <0>         0.1260
     63 H31        -2.8512  -11.5910   -9.6866 H         1 <0>         0.1288
     64 H32        -3.4969  -11.8033   -7.3236 H         1 <0>         0.1282
     65 H33        -0.2237   -8.0320  -10.7505 H         1 <0>         0.0566
     66 H34        -0.9252   -8.3229  -12.3604 H         1 <0>         0.0777
     67 H35        -1.8410   -7.4011  -11.1439 H         1 <0>         0.0570
     68 H36        -2.9497  -10.5038  -12.1844 H         1 <0>         0.0537
     69 H37        -1.2008  -10.5713  -12.5082 H         1 <0>         0.0717
     70 H38        -1.8975  -11.5290  -11.1793 H         1 <0>         0.0715
     71 H39        -2.0423   -5.8344   -1.5609 H         1 <0>         0.4151
@<TRIPOS>BOND
     1    1    2 1
     2    1   36 1
     3    1   37 1
     4    1   38 1
     5    2    3 1
     6    2    4 1
     7    2   39 1
     8    3   40 1
     9    3   41 1
    10    3   42 1
    11    4    5 1
    12    4   43 1
    13    4   44 1
    14    5    6 1
    15    5   45 1
    16    6    7 2
    17    6    8 1
    18    8    9 1
    19    8   46 1
    20    9   10 1
    21    9   47 1
    22    9   48 1
    23   10   11 1
    24   10   17 1
    25   10   12 1
    26   12   13 1
    27   12   49 1
    28   12   50 1
    29   13   14 1
    30   13   19 1
    31   13   15 1
    32   15   16 1
    33   15   51 1
    34   15   52 1
    35   16   17 1
    36   16   53 1
    37   16   54 1
    38   17   18 1
    39   17   71 1
    40   18   19 1
    41   18   55 1
    42   18   56 1
    43   19   20 1
    44   19   21 1
    45   21   25 1
    46   21   22 2
    47   22   23 1
    48   22   57 1
    49   23   24 2
    50   23   27 1
    51   24   25 1
    52   25   26 1
    53   26   58 1
    54   26   59 1
    55   26   60 1
    56   27   32 ar
    57   27   28 ar
    58   28   29 ar
    59   28   61 1
    60   29   30 ar
    61   29   62 1
    62   30   31 ar
    63   30   33 1
    64   31   32 ar
    65   31   63 1
    66   32   64 1
    67   33   34 1
    68   33   35 1
    69   34   65 1
    70   34   66 1
    71   34   67 1
    72   35   68 1
    73   35   69 1
    74   35   70 1
@<TRIPOS>MOLECULE
ZINC65025573
   71    75     0     0     0
SMALL
USER_CHARGES

@<TRIPOS>ATOM
      1 C1         -0.0167    1.3781    0.0096 C.ar      1 <0>        -0.0839
      2 C2          1.1709    2.0855    0.0021 C.ar      1 <0>        -0.1129
      3 C3          2.3773    1.4107   -0.0130 C.ar      1 <0>        -0.0937
      4 C4          2.3960    0.0285   -0.0201 C.ar      1 <0>        -0.1622
      5 C5          1.2084   -0.6789   -0.0117 C.ar      1 <0>        -0.0981
      6 C6          0.0021   -0.0041    0.0020 C.ar      1 <0>        -0.1134
      7 C7          3.7112   -0.7071   -0.0376 C.3       1 <0>         0.0442
      8 N1          4.1530   -0.9531    1.3416 N.4       1 <0>        -0.3830
      9 C8          3.2031   -1.8544    2.0048 C.3       1 <0>        -0.0072
     10 C9          3.6142   -2.0495    3.4658 C.3       1 <0>        -0.1545
     11 C10         5.0188   -2.6574    3.5183 C.3       1 <0>         0.1372
     12 C11         5.9875   -1.7457    2.7596 C.3       1 <0>        -0.1611
     13 C12         5.4885   -1.5619    1.3248 C.3       1 <0>        -0.0027
     14 N2          5.4492   -2.7765    4.9136 N.am      1 <0>        -0.7292
     15 C13         6.3700   -3.6983    5.2584 C.2       1 <0>         0.5696
     16 O1          6.8434   -4.4309    4.4116 O.2       1 <0>        -0.5277
     17 C14         6.8038   -3.8183    6.6648 C.ar      1 <0>        -0.1586
     18 C15         6.2556   -2.9803    7.6395 C.ar      1 <0>        -0.0733
     19 C16         6.6603   -3.0934    8.9501 C.ar      1 <0>        -0.1300
     20 C17         7.6176   -4.0443    9.3057 C.ar      1 <0>         0.0281
     21 C18         8.1656   -4.8816    8.3332 C.ar      1 <0>        -0.1283
     22 C19         7.7585   -4.7738    7.0229 C.ar      1 <0>        -0.0423
     23 C20         8.0530   -4.1648   10.7173 C.ar      1 <0>        -0.2440
     24 C21         7.5121   -3.3390   11.7073 C.ar      1 <0>         0.2176
     25 N3          7.9257   -3.4774   12.9542 N.ar      1 <0>        -0.5688
     26 C22         8.8399   -4.3834   13.2710 C.ar      1 <0>         0.5742
     27 N4          9.3765   -5.1842   12.3610 N.ar      1 <0>        -0.5611
     28 C23         9.0109   -5.1112   11.0938 C.ar      1 <0>         0.2177
     29 N5          9.2458   -4.4962   14.5879 N.pl3     1 <0>        -0.6855
     30 C24        10.2549   -5.4905   14.9609 C.3       1 <0>         0.1584
     31 C25         9.5753   -6.8388   15.2083 C.3       1 <0>        -0.1277
     32 C26        10.6292   -7.8773   15.5978 C.3       1 <0>        -0.1163
     33 C27        11.3441   -7.4250   16.8727 C.3       1 <0>        -0.1242
     34 C28        12.0237   -6.0767   16.6252 C.3       1 <0>        -0.1151
     35 C29        10.9698   -5.0382   16.2357 C.3       1 <0>        -0.1286
     36 H1         -0.9591    1.9053    0.0259 H         1 <0>         0.1360
     37 H2          1.1563    3.1654    0.0076 H         1 <0>         0.1362
     38 H3          3.3051    1.9634   -0.0196 H         1 <0>         0.1312
     39 H4          1.2231   -1.7588   -0.0176 H         1 <0>         0.1314
     40 H5         -0.9258   -0.5567    0.0082 H         1 <0>         0.1363
     41 H6          3.5884   -1.6586   -0.5549 H         1 <0>         0.1365
     42 H7          4.4573   -0.1052   -0.5563 H         1 <0>         0.1380
     43 H8          2.2034   -1.4219    1.9638 H         1 <0>         0.1370
     44 H9          3.2021   -2.8185    1.4962 H         1 <0>         0.1327
     45 H10         3.6152   -1.0860    3.9754 H         1 <0>         0.0938
     46 H11         2.9086   -2.7204    3.9559 H         1 <0>         0.1196
     47 H12         5.0068   -3.6434    3.0539 H         1 <0>         0.1069
     48 H13         6.0379   -0.7759    3.2546 H         1 <0>         0.0908
     49 H14         6.9785   -2.1995    2.7450 H         1 <0>         0.1187
     50 H15         5.4388   -2.5322    0.8307 H         1 <0>         0.1332
     51 H16         6.1761   -0.9134    0.7818 H         1 <0>         0.1352
     52 H17         5.0714   -2.1919    5.5892 H         1 <0>         0.4056
     53 H18         5.5150   -2.2440    7.3645 H         1 <0>         0.1246
     54 H19         6.2371   -2.4456    9.7035 H         1 <0>         0.1332
     55 H20         8.9067   -5.6171    8.6094 H         1 <0>         0.1354
     56 H21         8.1797   -5.4247    6.2710 H         1 <0>         0.1397
     57 H22         6.7671   -2.5984   11.4563 H         1 <0>         0.1690
     58 H23         9.4486   -5.7701   10.3585 H         1 <0>         0.1703
     59 H24         8.8623   -3.9169   15.2649 H         1 <0>         0.4150
     60 H25        10.9805   -5.5921   14.1539 H         1 <0>         0.0940
     61 H26         8.8496   -6.7372   16.0153 H         1 <0>         0.0624
     62 H27         9.0660   -7.1610   14.3001 H         1 <0>         0.0659
     63 H28        10.1450   -8.8378   15.7741 H         1 <0>         0.0658
     64 H29        11.3549   -7.9788   14.7909 H         1 <0>         0.0656
     65 H30        10.6185   -7.3234   17.6796 H         1 <0>         0.0633
     66 H31        12.0950   -8.1648   17.1502 H         1 <0>         0.0663
     67 H32        12.5331   -5.7545   17.5334 H         1 <0>         0.0697
     68 H33        12.7494   -6.1783   15.8182 H         1 <0>         0.0662
     69 H34        11.4540   -4.0777   16.0594 H         1 <0>         0.0694
     70 H35        10.2442   -4.9367   17.0427 H         1 <0>         0.0694
     71 H36         4.1896   -0.0782    1.8431 H         1 <0>         0.4220
@<TRIPOS>BOND
     1    1    6 ar
     2    1    2 ar
     3    1   36 1
     4    2    3 ar
     5    2   37 1
     6    3    4 ar
     7    3   38 1
     8    4    5 ar
     9    4    7 1
    10    5    6 ar
    11    5   39 1
    12    6   40 1
    13    7    8 1
    14    7   41 1
    15    7   42 1
    16    8   13 1
    17    8    9 1
    18    8   71 1
    19    9   10 1
    20    9   43 1
    21    9   44 1
    22   10   11 1
    23   10   45 1
    24   10   46 1
    25   11   12 1
    26   11   14 1
    27   11   47 1
    28   12   13 1
    29   12   48 1
    30   12   49 1
    31   13   50 1
    32   13   51 1
    33   14   15 am
    34   14   52 1
    35   15   16 2
    36   15   17 1
    37   17   22 ar
    38   17   18 ar
    39   18   19 ar
    40   18   53 1
    41   19   20 ar
    42   19   54 1
    43   20   21 ar
    44   20   23 1
    45   21   22 ar
    46   21   55 1
    47   22   56 1
    48   23   28 ar
    49   23   24 ar
    50   24   25 ar
    51   24   57 1
    52   25   26 ar
    53   26   27 ar
    54   26   29 1
    55   27   28 ar
    56   28   58 1
    57   29   30 1
    58   29   59 1
    59   30   35 1
    60   30   31 1
    61   30   60 1
    62   31   32 1
    63   31   61 1
    64   31   62 1
    65   32   33 1
    66   32   63 1
    67   32   64 1
    68   33   34 1
    69   33   65 1
    70   33   66 1
    71   34   35 1
    72   34   67 1
    73   34   68 1
    74   35   69 1
    75   35   70 1
@<TRIPOS>MOLECULE
ZINC35483232
   74    78     0     0     0
SMALL
USER_CHARGES

@<TRIPOS>ATOM
      1 C1          0.1284    1.4492    0.2097 C.3       1 <0>        -0.1869
      2 C2          0.0190   -0.0668    0.0349 C.3       1 <0>        -0.0187
      3 N1          0.5762   -0.4508   -1.2689 N.4       1 <0>        -0.3821
      4 C3          2.0192   -0.1759   -1.2850 C.3       1 <0>        -0.0142
      5 C4          2.5730   -0.4396   -2.6866 C.3       1 <0>        -0.1889
      6 C5          0.3482   -1.8842   -1.4959 C.3       1 <0>        -0.0398
      7 C6         -1.1545   -2.1508   -1.6035 C.3       1 <0>         0.1188
      8 N2         -1.3818   -3.5802   -1.8298 N.am      1 <0>        -0.5981
      9 C7         -1.4575   -4.2472   -3.1400 C.3       1 <0>         0.2386
     10 H1         -0.5174   -4.1266   -3.6782 H         1 <0>         0.1227
     11 C8         -1.7026   -5.6913   -2.8483 C.2       1 <0>        -0.2409
     12 C9         -1.8781   -6.8413   -3.7417 C.2       1 <0>         0.4557
     13 O1         -1.6700   -6.7922   -4.9411 O.2       1 <0>        -0.4281
     14 C10        -2.3329   -8.0710   -3.0450 C.ar      1 <0>        -0.2127
     15 C11        -2.7354   -9.1889   -3.7753 C.ar      1 <0>        -0.0316
     16 C12        -3.1564  -10.3119   -3.1190 C.ar      1 <0>        -0.1357
     17 C13        -3.1846  -10.3411   -1.7317 C.ar      1 <0>        -0.0489
     18 C14        -2.7897   -9.2472   -0.9949 C.ar      1 <0>        -0.1326
     19 C15        -2.3531   -8.0904   -1.6408 C.ar      1 <0>         0.1366
     20 O2         -1.9600   -7.0312   -0.8974 O.3       1 <0>        -0.1797
     21 C16        -1.7566   -5.8388   -1.4915 C.2       1 <0>         0.0865
     22 C17        -1.5526   -4.5165   -0.8743 C.2       1 <0>         0.5784
     23 O3         -1.5419   -4.3008    0.3213 O.2       1 <0>        -0.4741
     24 C18        -2.5951   -3.6782   -3.9481 C.ar      1 <0>        -0.1151
     25 C19        -3.7934   -3.3706   -3.3309 C.ar      1 <0>        -0.0963
     26 C20        -4.8400   -2.8483   -4.0678 C.ar      1 <0>        -0.1744
     27 C21        -4.6892   -2.6317   -5.4280 C.ar      1 <0>         0.1219
     28 C22        -3.4830   -2.9408   -6.0492 C.ar      1 <0>         0.1113
     29 C23        -2.4363   -3.4595   -5.3038 C.ar      1 <0>        -0.1457
     30 O4         -3.3301   -2.7300   -7.3840 O.3       1 <0>        -0.2986
     31 C24        -2.0647   -3.0706   -7.9539 C.3       1 <0>         0.0538
     32 C25        -2.0820   -2.7659   -9.4531 C.3       1 <0>        -0.1545
     33 O5         -5.7179   -2.1184   -6.1545 O.3       1 <0>        -0.2917
     34 C26        -6.9265   -1.8254   -5.4506 C.3       1 <0>         0.1021
     35 C27        -7.9453   -1.2690   -6.4116 C.ar      1 <0>        -0.1030
     36 C28        -8.0118    0.0934   -6.6361 C.ar      1 <0>        -0.0947
     37 C29        -8.9463    0.6037   -7.5176 C.ar      1 <0>        -0.1226
     38 C30        -9.8140   -0.2483   -8.1749 C.ar      1 <0>        -0.1046
     39 C31        -9.7469   -1.6107   -7.9510 C.ar      1 <0>        -0.1210
     40 C32        -8.8095   -2.1215   -7.0728 C.ar      1 <0>        -0.0934
     41 H2          1.1790    1.7329    0.2727 H         1 <0>         0.0817
     42 H3         -0.3320    1.9475   -0.6434 H         1 <0>         0.0805
     43 H4         -0.3838    1.7474    1.1245 H         1 <0>         0.1078
     44 H5          0.5754   -0.5652    0.8288 H         1 <0>         0.1332
     45 H6         -1.0286   -0.3635    0.0840 H         1 <0>         0.1315
     46 H7          2.1936    0.8657   -1.0153 H         1 <0>         0.1356
     47 H8          2.5208   -0.8258   -0.5679 H         1 <0>         0.1306
     48 H9          2.4989   -1.5034   -2.9124 H         1 <0>         0.0795
     49 H10         1.9971    0.1280   -3.4175 H         1 <0>         0.0808
     50 H11         3.6177   -0.1312   -2.7284 H         1 <0>         0.1077
     51 H12         0.8383   -2.1880   -2.4209 H         1 <0>         0.1389
     52 H13         0.7596   -2.4539   -0.6626 H         1 <0>         0.1376
     53 H14        -1.6446   -1.8469   -0.6785 H         1 <0>         0.1137
     54 H15        -1.5658   -1.5811   -2.4368 H         1 <0>         0.1153
     55 H16        -2.7148   -9.1675   -4.8549 H         1 <0>         0.1468
     56 H17        -3.4685  -11.1791   -3.6820 H         1 <0>         0.1438
     57 H18        -3.5208  -11.2329   -1.2238 H         1 <0>         0.1479
     58 H19        -2.8177   -9.2847    0.0840 H         1 <0>         0.1495
     59 H20        -3.9122   -3.5390   -2.2707 H         1 <0>         0.1207
     60 H21        -5.7752   -2.6096   -3.5833 H         1 <0>         0.1400
     61 H22        -1.4979   -3.6968   -5.7828 H         1 <0>         0.1405
     62 H23        -1.2805   -2.4856   -7.4733 H         1 <0>         0.0586
     63 H24        -1.8714   -4.1324   -7.8011 H         1 <0>         0.0661
     64 H25        -2.8662   -3.3509   -9.9337 H         1 <0>         0.0697
     65 H26        -2.2753   -1.7041   -9.6059 H         1 <0>         0.0673
     66 H27        -1.1167   -3.0257   -9.8878 H         1 <0>         0.0812
     67 H28        -7.3141   -2.7383   -4.9984 H         1 <0>         0.0728
     68 H29        -6.7238   -1.0913   -4.6707 H         1 <0>         0.0715
     69 H30        -7.3339    0.7591   -6.1226 H         1 <0>         0.1221
     70 H31        -8.9988    1.6682   -7.6925 H         1 <0>         0.1269
     71 H32       -10.5446    0.1505   -8.8631 H         1 <0>         0.1271
     72 H33       -10.4250   -2.2764   -8.4643 H         1 <0>         0.1278
     73 H34        -8.7546   -3.1863   -6.9007 H         1 <0>         0.1239
     74 H35         0.1244    0.0811   -1.9976 H         1 <0>         0.4232
@<TRIPOS>BOND
     1    1    2 1
     2    1   41 1
     3    1   42 1
     4    1   43 1
     5    2    3 1
     6    2   44 1
     7    2   45 1
     8    3    4 1
     9    3    6 1
    10    3   74 1
    11    4    5 1
    12    4   46 1
    13    4   47 1
    14    5   48 1
    15    5   49 1
    16    5   50 1
    17    6    7 1
    18    6   51 1
    19    6   52 1
    20    7    8 1
    21    7   53 1
    22    7   54 1
    23    8   22 am
    24    8    9 1
    25    9   10 1
    26    9   11 1
    27    9   24 1
    28   11   21 2
    29   11   12 1
    30   12   13 2
    31   12   14 1
    32   14   19 ar
    33   14   15 ar
    34   15   16 ar
    35   15   55 1
    36   16   17 ar
    37   16   56 1
    38   17   18 ar
    39   17   57 1
    40   18   19 ar
    41   18   58 1
    42   19   20 1
    43   20   21 1
    44   21   22 1
    45   22   23 2
    46   24   29 ar
    47   24   25 ar
    48   25   26 ar
    49   25   59 1
    50   26   27 ar
    51   26   60 1
    52   27   28 ar
    53   27   33 1
    54   28   29 ar
    55   28   30 1
    56   29   61 1
    57   30   31 1
    58   31   32 1
    59   31   62 1
    60   31   63 1
    61   32   64 1
    62   32   65 1
    63   32   66 1
    64   33   34 1
    65   34   35 1
    66   34   67 1
    67   34   68 1
    68   35   40 ar
    69   35   36 ar
    70   36   37 ar
    71   36   69 1
    72   37   38 ar
    73   37   70 1
    74   38   39 ar
    75   38   71 1
    76   39   40 ar
    77   39   72 1
    78   40   73 1
@<TRIPOS>MOLECULE
ZINC36704278
   67    70     0     0     0
SMALL
USER_CHARGES

@<TRIPOS>ATOM
      1 C1         -2.7746    1.2838    0.4637 C.3       1 <0>        -0.1867
      2 C2         -2.5470   -0.2292    0.4546 C.3       1 <0>        -0.0210
      3 N1         -1.4180   -0.5493   -0.4291 N.4       1 <0>        -0.3817
      4 C3         -0.1857    0.0309    0.1212 C.3       1 <0>        -0.0134
      5 C4          0.9673   -0.1978   -0.8582 C.3       1 <0>        -0.1898
      6 C5         -1.2713   -2.0077   -0.5273 C.3       1 <0>        -0.0378
      7 C6         -2.5036   -2.5991   -1.2147 C.3       1 <0>         0.0858
      8 N2         -2.3573   -4.0535   -1.3127 N.am      1 <0>        -0.5056
      9 C7         -2.9081   -4.8722   -0.3402 C.2       1 <0>         0.3426
     10 N3         -2.9969   -6.1816   -0.3201 N.2       1 <0>        -0.5041
     11 C8         -3.5654   -6.8550    0.7033 C.ar      1 <0>         0.0877
     12 C9         -3.7241   -8.2529    0.8477 C.ar      1 <0>        -0.0186
     13 C10        -4.3297   -8.7776    1.9592 C.ar      1 <0>        -0.1066
     14 C11        -4.8065   -7.9643    2.9773 C.ar      1 <0>        -0.0765
     15 C12        -4.6682   -6.5927    2.8693 C.ar      1 <0>        -0.0719
     16 C13        -4.0629   -6.0581    1.7595 C.ar      1 <0>        -0.1280
     17 S1         -3.6717   -4.4145    1.2095 S.3       1 <0>         0.0060
     18 C14        -3.2221   -9.1754   -0.2330 C.3       1 <0>        -0.1283
     19 C15        -1.6867   -4.5950   -2.3488 C.2       1 <0>         0.5374
     20 O1         -1.1480   -3.8769   -3.1641 O.2       1 <0>        -0.4909
     21 C16        -1.6064   -6.0928   -2.4941 C.3       1 <0>        -0.1041
     22 C17        -0.5415   -6.6411   -1.5415 C.3       1 <0>        -0.1061
     23 C18        -0.4869   -8.1669   -1.6669 C.3       1 <0>         0.1070
     24 N4         -0.2731   -8.5181   -3.0774 N.pl3     1 <0>        -0.9953
     25 C19        -1.1872   -7.9695   -4.0884 C.3       1 <0>         0.1187
     26 C20        -1.2340   -6.4459   -3.9359 C.3       1 <0>        -0.1172
     27 S2          0.9748   -9.5130   -3.5195 S.o2      1 <0>         2.7234
     28 O2          1.2642   -9.2217   -4.8798 O.2       1 <0>        -0.9427
     29 O3          1.9543   -9.4157   -2.4946 O.2       1 <0>        -0.9452
     30 C21         0.3640  -11.1652   -3.4771 C.2       1 <0>        -0.7710
     31 C22        -0.2187  -11.8854   -4.4666 C.2       1 <0>        -0.0016
     32 C23        -0.6244  -13.1803   -4.2034 C.2       1 <0>        -0.1932
     33 C24        -0.4275  -13.6917   -2.9636 C.2       1 <0>        -0.1255
     34 S3          0.3590  -12.3276   -2.1222 S.3       1 <0>         0.1612
     35 H1         -1.9179    1.7773    0.9227 H         1 <0>         0.0829
     36 H2         -2.8934    1.6394   -0.5598 H         1 <0>         0.0816
     37 H3         -3.6745    1.5124    1.0345 H         1 <0>         0.1082
     38 H4         -2.3245   -0.5692    1.4660 H         1 <0>         0.1336
     39 H5         -3.4451   -0.7295    0.0924 H         1 <0>         0.1291
     40 H6         -0.3250    1.1009    0.2749 H         1 <0>         0.1369
     41 H7          0.0466   -0.4458    1.0735 H         1 <0>         0.1306
     42 H8          1.1750   -1.2653   -0.9320 H         1 <0>         0.0799
     43 H9          0.6918    0.1875   -1.8400 H         1 <0>         0.0821
     44 H10         1.8563    0.3215   -0.5004 H         1 <0>         0.1083
     45 H11        -0.3812   -2.2448   -1.1102 H         1 <0>         0.1456
     46 H12        -1.1745   -2.4312    0.4723 H         1 <0>         0.1362
     47 H13        -3.3936   -2.3619   -0.6318 H         1 <0>         0.1105
     48 H14        -2.6004   -2.1755   -2.2143 H         1 <0>         0.1261
     49 H15        -4.4387   -9.8486    2.0447 H         1 <0>         0.1411
     50 H16        -5.2811   -8.3980    3.8450 H         1 <0>         0.1460
     51 H17        -5.0344   -5.9462    3.6531 H         1 <0>         0.1376
     52 H18        -2.2399   -9.5586    0.0436 H         1 <0>         0.0826
     53 H19        -3.9163  -10.0073   -0.3519 H         1 <0>         0.0774
     54 H20        -3.1471   -8.6277   -1.1724 H         1 <0>         0.0812
     55 H21        -2.5730   -6.5336   -2.2504 H         1 <0>         0.1343
     56 H22         0.4299   -6.2198   -1.8004 H         1 <0>         0.0695
     57 H23        -0.7952   -6.3692   -0.5169 H         1 <0>         0.0801
     58 H24         0.3357   -8.5538   -1.0653 H         1 <0>         0.0979
     59 H25        -1.4277   -8.5958   -1.3221 H         1 <0>         0.0905
     60 H26        -0.8268   -8.2261   -5.0846 H         1 <0>         0.1028
     61 H27        -2.1852   -8.3823   -3.9411 H         1 <0>         0.0759
     62 H28        -1.9805   -6.0350   -4.6155 H         1 <0>         0.0831
     63 H29        -0.2561   -6.0264   -4.1722 H         1 <0>         0.0819
     64 H30        -0.3641  -11.4539   -5.4459 H         1 <0>         0.1476
     65 H31        -1.0915  -13.7756   -4.9740 H         1 <0>         0.1477
     66 H32        -0.6779  -14.6714   -2.5844 H         1 <0>         0.1984
     67 H33        -1.5898   -0.1660   -1.3465 H         1 <0>         0.4256
@<TRIPOS>BOND
     1    1    2 1
     2    1   35 1
     3    1   36 1
     4    1   37 1
     5    2    3 1
     6    2   38 1
     7    2   39 1
     8    3    4 1
     9    3    6 1
    10    3   67 1
    11    4    5 1
    12    4   40 1
    13    4   41 1
    14    5   42 1
    15    5   43 1
    16    5   44 1
    17    6    7 1
    18    6   45 1
    19    6   46 1
    20    7    8 1
    21    7   47 1
    22    7   48 1
    23    8    9 1
    24    8   19 am
    25    9   17 1
    26    9   10 2
    27   10   11 1
    28   11   16 ar
    29   11   12 ar
    30   12   13 ar
    31   12   18 1
    32   13   14 ar
    33   13   49 1
    34   14   15 ar
    35   14   50 1
    36   15   16 ar
    37   15   51 1
    38   16   17 1
    39   18   52 1
    40   18   53 1
    41   18   54 1
    42   19   20 2
    43   19   21 1
    44   21   26 1
    45   21   22 1
    46   21   55 1
    47   22   23 1
    48   22   56 1
    49   22   57 1
    50   23   24 1
    51   23   58 1
    52   23   59 1
    53   24   25 1
    54   24   27 1
    55   25   26 1
    56   25   60 1
    57   25   61 1
    58   26   62 1
    59   26   63 1
    60   27   28 2
    61   27   29 2
    62   27   30 1
    63   30   34 1
    64   30   31 2
    65   31   32 1
    66   31   64 1
    67   32   33 2
    68   32   65 1
    69   33   34 1
    70   33   66 1
@<TRIPOS>MOLECULE
ZINC39237550
   62    66     0     0     0
SMALL
USER_CHARGES

@<TRIPOS>ATOM
      1 C1         -0.9407    2.4410    0.2868 C.3       1 <0>        -0.1430
      2 C2         -0.6365    0.9464    0.1658 C.3       1 <0>         0.0184
      3 N1          0.2562    0.5383    1.2587 N.3       1 <0>        -0.4866
      4 C3          0.6029   -0.9016    1.1531 C.3       1 <0>         0.1538
      5 H1         -0.1561   -1.4337    0.5795 H         1 <0>         0.0979
      6 N2          0.6270   -1.3835    2.5402 N.2       1 <0>        -0.1158
      7 N3          0.0610   -0.5901    3.2987 N.2       1 <0>        -0.0909
      8 C4         -0.4501    0.5745    2.5643 C.3       1 <0>         0.1319
      9 H2         -0.2129    1.4943    3.0988 H         1 <0>         0.1922
     10 S1         -2.2414    0.4294    2.3176 S.3       1 <0>        -0.0863
     11 C5         -2.4647   -1.2646    1.7084 C.3       1 <0>        -0.1713
     12 H3         -1.5981   -1.5132    1.0957 H         1 <0>         0.1764
     13 C6         -3.6881   -1.2794    0.8121 C.2       1 <0>         0.2844
     14 C7         -4.7225   -2.1507    1.1647 C.ar      1 <0>        -0.1714
     15 C8         -5.8962   -2.2284    0.3859 C.ar      1 <0>         0.0189
     16 C9         -6.8883   -3.0857    0.7516 C.ar      1 <0>        -0.0891
     17 C10        -6.7691   -3.8910    1.8831 C.ar      1 <0>         0.0789
     18 C11        -5.6606   -3.8596    2.6735 C.ar      1 <0>        -0.1958
     19 C12        -4.5955   -2.9981    2.3556 C.ar      1 <0>         0.3415
     20 N4         -3.5075   -2.9695    3.1327 N.am      1 <0>        -0.5881
     21 C13        -2.4693   -2.1906    2.9032 C.2       1 <0>         0.5157
     22 O1         -1.5123   -2.2179    3.6546 O.2       1 <0>        -0.3883
     23 Cl1        -8.3307   -3.1776   -0.2100 Cl        1 <0>        -0.0058
     24 C14        -3.7786   -0.4467   -0.3317 C.ar      1 <0>        -0.1728
     25 C15        -4.7031    0.6102   -0.3654 C.ar      1 <0>        -0.0518
     26 C16        -4.7830    1.4132   -1.4813 C.ar      1 <0>        -0.1103
     27 C17        -3.9555    1.1816   -2.5680 C.ar      1 <0>        -0.0538
     28 C18        -3.0402    0.1418   -2.5448 C.ar      1 <0>        -0.1102
     29 C19        -2.9403   -0.6693   -1.4364 C.ar      1 <0>        -0.0639
     30 C20         1.9568   -1.0698    0.5130 C.ar      1 <0>        -0.0069
     31 C21         2.4086   -0.1366   -0.4004 C.ar      1 <0>        -0.1617
     32 C22         3.6549   -0.2893   -0.9913 C.ar      1 <0>         0.1702
     33 C23         4.4469   -1.3792   -0.6644 C.ar      1 <0>        -0.2856
     34 C24         3.9914   -2.3140    0.2524 C.ar      1 <0>         0.1724
     35 C25         2.7466   -2.1539    0.8447 C.ar      1 <0>        -0.1635
     36 O2          4.7652   -3.3837    0.5745 O.3       1 <0>        -0.3092
     37 C26         6.0370   -3.4819   -0.0697 C.3       1 <0>         0.0241
     38 O3          4.0986    0.6286   -1.8899 O.3       1 <0>        -0.3106
     39 C27         5.3909    0.4079   -2.4584 C.3       1 <0>         0.0242
     40 H4         -0.0111    3.0070    0.2272 H         1 <0>         0.0747
     41 H5         -1.6031    2.7438   -0.5241 H         1 <0>         0.0741
     42 H6         -1.4247    2.6369    1.2436 H         1 <0>         0.0582
     43 H7         -1.5661    0.3804    0.2254 H         1 <0>         0.0588
     44 H8         -0.1525    0.7505   -0.7910 H         1 <0>         0.1006
     45 H9         -6.0071   -1.6118   -0.4938 H         1 <0>         0.1766
     46 H10        -7.5785   -4.5581    2.1403 H         1 <0>         0.1785
     47 H11        -5.5996   -4.4958    3.5440 H         1 <0>         0.1825
     48 H12        -5.3492    0.7922    0.4806 H         1 <0>         0.1407
     49 H13        -5.4934    2.2262   -1.5094 H         1 <0>         0.1487
     50 H14        -4.0247    1.8157   -3.4395 H         1 <0>         0.1453
     51 H15        -2.3999   -0.0307   -3.3973 H         1 <0>         0.1477
     52 H16        -2.2228   -1.4763   -1.4184 H         1 <0>         0.1342
     53 H17         1.7911    0.7121   -0.6550 H         1 <0>         0.1375
     54 H18         5.4170   -1.4999   -1.1234 H         1 <0>         0.1400
     55 H19         2.3931   -2.8796    1.5622 H         1 <0>         0.1416
     56 H20         6.5511   -4.3787    0.2759 H         1 <0>         0.1075
     57 H21         5.8942   -3.5380   -1.1489 H         1 <0>         0.0577
     58 H22         6.6356   -2.6037    0.1724 H         1 <0>         0.0584
     59 H23         5.6225    1.2117   -3.1572 H         1 <0>         0.1071
     60 H24         6.1384    0.3895   -1.6652 H         1 <0>         0.0584
     61 H25         5.3977   -0.5457   -2.9862 H         1 <0>         0.0578
     62 H26        -3.4811   -3.5534    3.9068 H         1 <0>         0.4453
@<TRIPOS>BOND
     1    1    2 1
     2    1   40 1
     3    1   41 1
     4    1   42 1
     5    2    3 1
     6    2   43 1
     7    2   44 1
     8    3    8 1
     9    3    4 1
    10    4    5 1
    11    4    6 1
    12    4   30 1
    13    6    7 2
    14    7    8 1
    15    8    9 1
    16    8   10 1
    17   10   11 1
    18   11   12 1
    19   11   21 1
    20   11   13 1
    21   13   14 2
    22   13   24 1
    23   14   19 ar
    24   14   15 ar
    25   15   16 ar
    26   15   45 1
    27   16   17 ar
    28   16   23 1
    29   17   18 ar
    30   17   46 1
    31   18   19 ar
    32   18   47 1
    33   19   20 2
    34   20   21 am
    35   20   62 1
    36   21   22 2
    37   24   29 ar
    38   24   25 ar
    39   25   26 ar
    40   25   48 1
    41   26   27 ar
    42   26   49 1
    43   27   28 ar
    44   27   50 1
    45   28   29 ar
    46   28   51 1
    47   29   52 1
    48   30   35 ar
    49   30   31 ar
    50   31   32 ar
    51   31   53 1
    52   32   33 ar
    53   32   38 1
    54   33   34 ar
    55   33   54 1
    56   34   35 ar
    57   34   36 1
    58   35   55 1
    59   36   37 1
    60   37   56 1
    61   37   57 1
    62   37   58 1
    63   38   39 1
    64   39   59 1
    65   39   60 1
    66   39   61 1
@<TRIPOS>MOLECULE
ZINC22053049
   77    81     0     0     0
SMALL
USER_CHARGES

@<TRIPOS>ATOM
      1 C1         -0.0599    1.5125    0.1947 C.3       1 <0>        -0.1559
      2 C2          0.0021   -0.0041    0.0020 C.3       1 <0>         0.1151
      3 H1          0.5016   -0.2305   -0.9400 H         1 <0>         0.0893
      4 C3         -1.3965   -0.5647   -0.0235 C.ar      1 <0>         0.4693
      5 N1         -2.0412   -0.5877   -1.1659 N.ar      1 <0>        -0.5465
      6 C4         -3.2877   -1.0781   -1.2335 C.ar      1 <0>         0.1783
      7 C5         -4.0059   -1.1183   -2.4364 C.ar      1 <0>        -0.1405
      8 C6         -5.2702   -1.6278   -2.4486 C.ar      1 <0>        -0.0218
      9 C7         -5.8611   -2.1095   -1.2838 C.ar      1 <0>        -0.1089
     10 C8         -5.1904   -2.0853   -0.0965 C.ar      1 <0>        -0.0465
     11 C9         -3.8907   -1.5691   -0.0498 C.ar      1 <0>        -0.1746
     12 C10        -3.1438   -1.5178    1.1524 C.ar      1 <0>         0.5201
     13 N2         -1.9166   -1.0165    1.1063 N.ar      1 <0>        -0.5178
     14 N3         -3.6761   -1.9800    2.3369 N.pl3     1 <0>        -0.6329
     15 C11        -2.8857   -1.9173    3.5689 C.3       1 <0>         0.1311
     16 C12        -1.9865   -3.1517    3.6613 C.3       1 <0>        -0.1282
     17 C13        -1.1611   -3.0862    4.9479 C.3       1 <0>        -0.1162
     18 C14        -2.1003   -3.0480    6.1550 C.3       1 <0>        -0.1261
     19 C15        -2.9996   -1.8136    6.0626 C.3       1 <0>        -0.1149
     20 C16        -3.8250   -1.8790    4.7760 C.3       1 <0>        -0.1312
     21 N4          0.7517   -0.6084    1.1114 N.3       1 <0>        -0.5067
     22 C17         2.0627    0.0344    1.2728 C.3       1 <0>         0.0378
     23 C18         2.7348   -0.4957    2.5438 C.3       1 <0>         0.1229
     24 N5          2.7663   -1.9647    2.4778 N.pl3     1 <0>        -1.0011
     25 C19         1.5127   -2.6750    2.1824 C.3       1 <0>         0.1243
     26 C20         0.8888   -2.0591    0.9256 C.3       1 <0>         0.0413
     27 S1          4.1757   -2.7968    2.7299 S.o2      1 <0>         2.6882
     28 O1          4.0306   -4.0493    2.0746 O.2       1 <0>        -0.9529
     29 O2          5.2362   -1.8993    2.4316 O.2       1 <0>        -0.9498
     30 C21         4.2766   -3.1399    4.4552 C.ar      1 <0>        -0.6835
     31 C22         4.8907   -2.2384    5.3044 C.ar      1 <0>        -0.0155
     32 C23         4.9699   -2.5076    6.6580 C.ar      1 <0>        -0.1370
     33 C24         4.4347   -3.6780    7.1624 C.ar      1 <0>        -0.0129
     34 C25         3.8198   -4.5791    6.3134 C.ar      1 <0>        -0.1347
     35 C26         3.7368   -4.3079    4.9604 C.ar      1 <0>        -0.0182
     36 C27         4.5219   -3.9719    8.6379 C.3       1 <0>        -0.0683
     37 C28         3.1116   -4.1179    9.2131 C.3       1 <0>        -0.1448
     38 C29         5.2980   -5.2726    8.8539 C.3       1 <0>        -0.1480
     39 H2          0.9517    1.9180    0.2132 H         1 <0>         0.0958
     40 H3         -0.6161    1.9609   -0.6285 H         1 <0>         0.0713
     41 H4         -0.5594    1.7390    1.1367 H         1 <0>         0.0856
     42 H5         -3.5606   -0.7476   -3.3478 H         1 <0>         0.1592
     43 H6         -5.8221   -1.6580   -3.3764 H         1 <0>         0.1577
     44 H7         -6.8645   -2.5073   -1.3208 H         1 <0>         0.1544
     45 H8         -5.6591   -2.4613    0.8009 H         1 <0>         0.1481
     46 H9         -4.5739   -2.3467    2.3548 H         1 <0>         0.4250
     47 H10        -2.2691   -1.0185    3.5596 H         1 <0>         0.1147
     48 H11        -2.6031   -4.0505    3.6705 H         1 <0>         0.0687
     49 H12        -1.3173   -3.1790    2.8013 H         1 <0>         0.0723
     50 H13        -0.5204   -3.9657    5.0137 H         1 <0>         0.0720
     51 H14        -0.5445   -2.1874    4.9386 H         1 <0>         0.0708
     52 H15        -2.7169   -3.9468    6.1642 H         1 <0>         0.0654
     53 H16        -1.5123   -3.0013    7.0716 H         1 <0>         0.0709
     54 H17        -3.6687   -1.7863    6.9226 H         1 <0>         0.0754
     55 H18        -2.3830   -0.9148    6.0534 H         1 <0>         0.0694
     56 H19        -4.4656   -0.9996    4.7102 H         1 <0>         0.0741
     57 H20        -4.4416   -2.7778    4.7853 H         1 <0>         0.0742
     58 H21         2.6878   -0.1925    0.4091 H         1 <0>         0.0527
     59 H22         1.9313    1.1134    1.3537 H         1 <0>         0.1043
     60 H23         3.7524   -0.1102    2.6080 H         1 <0>         0.1050
     61 H24         2.1651   -0.1806    3.4180 H         1 <0>         0.0841
     62 H25         1.7223   -3.7303    2.0077 H         1 <0>         0.0995
     63 H26         0.8255   -2.5694    3.0219 H         1 <0>         0.0844
     64 H27        -0.0941   -2.4984    0.7549 H         1 <0>         0.0794
     65 H28         1.5302   -2.2569    0.0668 H         1 <0>         0.0490
     66 H29         5.3089   -1.3240    4.9103 H         1 <0>         0.1392
     67 H30         5.4503   -1.8036    7.3213 H         1 <0>         0.1342
     68 H31         3.4019   -5.4936    6.7075 H         1 <0>         0.1328
     69 H32         3.2531   -5.0101    4.2976 H         1 <0>         0.1368
     70 H33         5.0367   -3.1537    9.1415 H         1 <0>         0.0848
     71 H34         2.5968   -4.9361    8.7095 H         1 <0>         0.0582
     72 H35         3.1747   -4.3305   10.2803 H         1 <0>         0.0648
     73 H36         2.5587   -3.1912    9.0593 H         1 <0>         0.0567
     74 H37         6.3026   -5.1686    8.4441 H         1 <0>         0.0589
     75 H38         5.3611   -5.4852    9.9211 H         1 <0>         0.0655
     76 H39         4.7831   -6.0908    8.3502 H         1 <0>         0.0590
     77 H40        -1.6135   -0.2473   -1.9672 H         1 <0>         0.4433
@<TRIPOS>BOND
     1    1    2 1
     2    1   39 1
     3    1   40 1
     4    1   41 1
     5    2    3 1
     6    2    4 1
     7    2   21 1
     8    4   13 ar
     9    4    5 ar
    10    5    6 ar
    11    5   77 1
    12    6   11 ar
    13    6    7 ar
    14    7    8 ar
    15    7   42 1
    16    8    9 ar
    17    8   43 1
    18    9   10 ar
    19    9   44 1
    20   10   11 ar
    21   10   45 1
    22   11   12 ar
    23   12   13 ar
    24   12   14 1
    25   14   15 1
    26   14   46 1
    27   15   20 1
    28   15   16 1
    29   15   47 1
    30   16   17 1
    31   16   48 1
    32   16   49 1
    33   17   18 1
    34   17   50 1
    35   17   51 1
    36   18   19 1
    37   18   52 1
    38   18   53 1
    39   19   20 1
    40   19   54 1
    41   19   55 1
    42   20   56 1
    43   20   57 1
    44   21   26 1
    45   21   22 1
    46   22   23 1
    47   22   58 1
    48   22   59 1
    49   23   24 1
    50   23   60 1
    51   23   61 1
    52   24   25 1
    53   24   27 1
    54   25   26 1
    55   25   62 1
    56   25   63 1
    57   26   64 1
    58   26   65 1
    59   27   28 2
    60   27   29 2
    61   27   30 1
    62   30   35 ar
    63   30   31 ar
    64   31   32 ar
    65   31   66 1
    66   32   33 ar
    67   32   67 1
    68   33   34 ar
    69   33   36 1
    70   34   35 ar
    71   34   68 1
    72   35   69 1
    73   36   37 1
    74   36   38 1
    75   36   70 1
    76   37   71 1
    77   37   72 1
    78   37   73 1
    79   38   74 1
    80   38   75 1
    81   38   76 1
@<TRIPOS>MOLECULE
ZINC63655010
   71    74     0     0     0
SMALL
USER_CHARGES

@<TRIPOS>ATOM
      1 C1         -0.4780    0.8598    1.1832 C.3       1 <0>        -0.1566
      2 C2         -0.4942   -0.6527    0.9530 C.3       1 <0>         0.0978
      3 H1          0.1567   -0.9122    0.1180 H         1 <0>         0.1713
      4 C3         -1.9053   -1.1233    0.6799 C.2       1 <0>         0.0864
      5 C4         -2.2047   -2.0010    1.6644 C.ar      1 <0>        -0.1761
      6 C5         -3.4046   -2.7936    1.9589 C.ar      1 <0>        -0.0246
      7 C6         -3.4067   -3.6026    3.0426 C.ar      1 <0>        -0.1515
      8 C7         -2.2944   -3.7030    3.8896 C.ar      1 <0>         0.0553
      9 C8         -1.1564   -3.0066    3.6845 C.ar      1 <0>        -0.2096
     10 C9         -1.0436   -2.1249    2.5743 C.ar      1 <0>         0.3347
     11 N1         -0.0626   -1.3537    2.1674 N.pl3     1 <0>        -0.5868
     12 C10        -2.7971   -0.7000   -0.4587 C.3       1 <0>        -0.1121
     13 C11        -4.1410   -1.4234   -0.3500 C.3       1 <0>         0.1020
     14 N2         -5.0080   -1.0119   -1.4569 N.pl3     1 <0>        -0.5675
     15 C12        -4.9876   -1.7557   -2.7189 C.3       1 <0>         0.1322
     16 C13        -6.0070   -2.8643   -2.6650 C.ar      1 <0>        -0.0513
     17 C14        -5.6463   -4.1096   -2.1856 C.ar      1 <0>        -0.2178
     18 C15        -6.5811   -5.1325   -2.1348 C.ar      1 <0>         0.1541
     19 C16        -7.8823   -4.9042   -2.5663 C.ar      1 <0>         0.0440
     20 C17        -8.2411   -3.6506   -3.0472 C.ar      1 <0>         0.1601
     21 C18        -7.3016   -2.6315   -3.0898 C.ar      1 <0>        -0.2190
     22 O1         -9.5131   -3.4221   -3.4705 O.3       1 <0>        -0.2951
     23 C19        -9.8108   -2.1101   -3.9521 C.3       1 <0>         0.0226
     24 O2         -8.8027   -5.9056   -2.5185 O.3       1 <0>        -0.3110
     25 C20        -9.5691   -6.0256   -1.3184 C.3       1 <0>         0.0360
     26 O3         -6.2250   -6.3577   -1.6639 O.3       1 <0>        -0.2960
     27 C21        -4.8707   -6.5205   -1.2381 C.3       1 <0>         0.0249
     28 C22        -5.8243    0.0510   -1.3143 C.2       1 <0>         0.5579
     29 S1         -5.8481    0.9203    0.1604 S.2       1 <0>        -0.6111
     30 N3         -6.6219    0.4296   -2.3326 N.pl3     1 <0>        -0.6162
     31 C23        -7.5533    1.4596   -2.1473 C.ar      1 <0>         0.0686
     32 C24        -7.7375    2.4158   -3.1370 C.ar      1 <0>        -0.0774
     33 C25        -8.6560    3.4306   -2.9539 C.ar      1 <0>        -0.1459
     34 C26        -9.3942    3.4950   -1.7812 C.ar      1 <0>         0.1443
     35 C27        -9.2104    2.5403   -0.7918 C.ar      1 <0>        -0.1998
     36 C28        -8.2966    1.5215   -0.9762 C.ar      1 <0>        -0.0255
     37 O4        -10.2982    4.4948   -1.6014 O.3       1 <0>        -0.3134
     38 C29       -11.0234    4.4999   -0.3701 C.3       1 <0>         0.0246
     39 H2          0.5406    1.1840    1.3967 H         1 <0>         0.0949
     40 H3         -0.8410    1.3673    0.2895 H         1 <0>         0.1062
     41 H4         -1.1220    1.1057    2.0276 H         1 <0>         0.0844
     42 H5         -4.2730   -2.7313    1.3198 H         1 <0>         0.1639
     43 H6         -4.2886   -4.1864    3.2613 H         1 <0>         0.1569
     44 H7         -2.3503   -4.3644    4.7415 H         1 <0>         0.1606
     45 H8         -0.3272   -3.1196    4.3671 H         1 <0>         0.1603
     46 H9         -2.9593    0.3768   -0.4122 H         1 <0>         0.1385
     47 H10        -2.3226   -0.9554   -1.4062 H         1 <0>         0.1232
     48 H11        -3.9787   -2.5002   -0.3966 H         1 <0>         0.0964
     49 H12        -4.6155   -1.1680    0.5974 H         1 <0>         0.1289
     50 H13        -5.2267   -1.0819   -3.5417 H         1 <0>         0.0950
     51 H14        -3.9961   -2.1810   -2.8740 H         1 <0>         0.1121
     52 H15        -4.6349   -4.2863   -1.8505 H         1 <0>         0.1340
     53 H16        -7.5807   -1.6558   -3.4592 H         1 <0>         0.1290
     54 H17        -9.6306   -1.3828   -3.1604 H         1 <0>         0.0571
     55 H18        -9.1727   -1.8830   -4.8062 H         1 <0>         0.0593
     56 H19       -10.8562   -2.0635   -4.2572 H         1 <0>         0.1104
     57 H20        -8.9000   -6.2023   -0.4762 H         1 <0>         0.0451
     58 H21       -10.1287   -5.1054   -1.1510 H         1 <0>         0.0464
     59 H22       -10.2630   -6.8609   -1.4124 H         1 <0>         0.0985
     60 H23        -4.6579   -5.8223   -0.4285 H         1 <0>         0.0526
     61 H24        -4.7206   -7.5412   -0.8864 H         1 <0>         0.1073
     62 H25        -4.2005   -6.3221   -2.0745 H         1 <0>         0.0589
     63 H26        -6.5511   -0.0111   -3.1938 H         1 <0>         0.4037
     64 H27        -7.1623    2.3662   -4.0498 H         1 <0>         0.1312
     65 H28        -8.7994    4.1744   -3.7237 H         1 <0>         0.1392
     66 H29        -9.7850    2.5915    0.1212 H         1 <0>         0.1352
     67 H30        -8.1571    0.7755   -0.2078 H         1 <0>         0.1432
     68 H31       -11.7088    5.3473   -0.3556 H         1 <0>         0.1044
     69 H32       -11.5896    3.5731   -0.2780 H         1 <0>         0.0582
     70 H33       -10.3250    4.5833    0.4626 H         1 <0>         0.0589
     71 H34         0.8023   -1.2619    2.5970 H         1 <0>         0.4539
@<TRIPOS>BOND
     1    1    2 1
     2    1   39 1
     3    1   40 1
     4    1   41 1
     5    2    3 1
     6    2   11 1
     7    2    4 1
     8    4    5 2
     9    4   12 1
    10    5   10 ar
    11    5    6 ar
    12    6    7 ar
    13    6   42 1
    14    7    8 ar
    15    7   43 1
    16    8    9 ar
    17    8   44 1
    18    9   10 ar
    19    9   45 1
    20   10   11 2
    21   11   71 1
    22   12   13 1
    23   12   46 1
    24   12   47 1
    25   13   14 1
    26   13   48 1
    27   13   49 1
    28   14   15 1
    29   14   28 1
    30   15   16 1
    31   15   50 1
    32   15   51 1
    33   16   21 ar
    34   16   17 ar
    35   17   18 ar
    36   17   52 1
    37   18   19 ar
    38   18   26 1
    39   19   20 ar
    40   19   24 1
    41   20   21 ar
    42   20   22 1
    43   21   53 1
    44   22   23 1
    45   23   54 1
    46   23   55 1
    47   23   56 1
    48   24   25 1
    49   25   57 1
    50   25   58 1
    51   25   59 1
    52   26   27 1
    53   27   60 1
    54   27   61 1
    55   27   62 1
    56   28   29 2
    57   28   30 1
    58   30   31 1
    59   30   63 1
    60   31   36 ar
    61   31   32 ar
    62   32   33 ar
    63   32   64 1
    64   33   34 ar
    65   33   65 1
    66   34   35 ar
    67   34   37 1
    68   35   36 ar
    69   35   66 1
    70   36   67 1
    71   37   38 1
    72   38   68 1
    73   38   69 1
    74   38   70 1
@<TRIPOS>MOLECULE
ZINC16780130
   65    67     0     0     0
SMALL
USER_CHARGES
N-[[4-(diethylaminomethyl)phenyl]methyl]-4-(o-tolylsulfamoyl)benzamide
@<TRIPOS>ATOM
      1 C1         -1.2694   12.8723   -8.4868 C.3       1 <0>        -0.1866
      2 C2         -0.6272   11.7888   -9.3555 C.3       1 <0>        -0.0154
      3 C3          1.5380   12.8317   -9.0603 C.3       1 <0>        -0.0129
      4 C4          1.7609   13.1487  -10.5404 C.3       1 <0>        -0.1880
      5 C5          0.8337   11.0603   -7.5673 C.3       1 <0>         0.0419
      6 C6          0.2456    9.6732   -7.5338 C.ar      1 <0>        -0.1517
      7 C7          1.0552    8.5737   -7.7500 C.ar      1 <0>        -0.0935
      8 C8          0.5158    7.3013   -7.7183 C.ar      1 <0>        -0.0939
      9 C9         -0.8330    7.1283   -7.4701 C.ar      1 <0>        -0.0733
     10 C10        -1.6436    8.2281   -7.2592 C.ar      1 <0>        -0.0947
     11 C11        -1.1034    9.5002   -7.2865 C.ar      1 <0>        -0.0959
     12 C12        -1.4210    5.7412   -7.4356 C.3       1 <0>         0.1516
     13 N1         -1.3524    5.2156   -6.0698 N.am      1 <0>        -0.7245
     14 C13        -1.8232    3.9824   -5.7979 C.2       1 <0>         0.5581
     15 O1         -2.3047    3.3062   -6.6859 O.2       1 <0>        -0.5159
     16 C14        -1.7541    3.4520   -4.4196 C.ar      1 <0>        -0.0802
     17 C15        -2.2408    2.1753   -4.1346 C.ar      1 <0>        -0.0779
     18 C16        -2.1728    1.6861   -2.8465 C.ar      1 <0>        -0.0193
     19 C17        -1.6238    2.4582   -1.8381 C.ar      1 <0>        -0.6518
     20 C18        -1.1443    3.7267   -2.1128 C.ar      1 <0>        -0.0201
     21 C19        -1.2015    4.2257   -3.3977 C.ar      1 <0>        -0.1083
     22 S1         -1.5414    1.8261   -0.1955 S.o2      1 <0>         2.6893
     23 O2         -2.5552    0.8361   -0.0900 O.2       1 <0>        -0.9406
     24 O3         -1.4825    2.9514    0.6702 O.2       1 <0>        -0.9407
     25 N2         -0.0927    1.0379   -0.0463 N.pl3     1 <0>        -1.0507
     26 C20         1.1037    1.7336   -0.2351 C.ar      1 <0>         0.1495
     27 C21         1.2116    3.0569    0.1742 C.ar      1 <0>        -0.1716
     28 C22         2.3971    3.7404   -0.0101 C.ar      1 <0>        -0.0961
     29 C23         3.4732    3.1123   -0.6106 C.ar      1 <0>        -0.1286
     30 C24         3.3676    1.7970   -1.0234 C.ar      1 <0>        -0.0973
     31 C25         2.1862    1.1059   -0.8378 C.ar      1 <0>        -0.0994
     32 C26         2.0718   -0.3274   -1.2890 C.3       1 <0>        -0.1169
     33 H1         -0.7761   13.8264   -8.6722 H         1 <0>         0.0824
     34 H2         -2.3277   12.9564   -8.7341 H         1 <0>         0.1061
     35 H3         -1.1621   12.6060   -7.4353 H         1 <0>         0.0785
     36 H4         -0.6515   12.0989  -10.4002 H         1 <0>         0.1290
     37 H5         -1.1794   10.8561   -9.2403 H         1 <0>         0.1280
     38 H6          0.9879   13.6483   -8.5926 H         1 <0>         0.1337
     39 H7          2.5016   12.7122   -8.5651 H         1 <0>         0.1287
     40 H8          2.4095   14.0199  -10.6316 H         1 <0>         0.1063
     41 H9          2.2296   12.2941  -11.0284 H         1 <0>         0.0792
     42 H10         0.8025   13.3578  -11.0155 H         1 <0>         0.0799
     43 H11         0.2690   11.7106   -6.8993 H         1 <0>         0.1387
     44 H12         1.8738   11.0218   -7.2435 H         1 <0>         0.1361
     45 H13         2.1091    8.7089   -7.9432 H         1 <0>         0.1349
     46 H14         1.1483    6.4424   -7.8872 H         1 <0>         0.1388
     47 H15        -2.6982    8.0931   -7.0696 H         1 <0>         0.1388
     48 H16        -1.7359   10.3592   -7.1173 H         1 <0>         0.1343
     49 H17        -0.8568    5.0907   -8.1039 H         1 <0>         0.0872
     50 H18        -2.4614    5.7794   -7.7584 H         1 <0>         0.0873
     51 H19        -0.9682    5.7552   -5.3612 H         1 <0>         0.4030
     52 H20        -2.6699    1.5717   -4.9208 H         1 <0>         0.1507
     53 H21        -2.5487    0.6982   -2.6247 H         1 <0>         0.1523
     54 H22        -0.7207    4.3259   -1.3204 H         1 <0>         0.1489
     55 H23        -0.8231    5.2144   -3.6117 H         1 <0>         0.1340
     56 H24        -0.0750    0.0921    0.1684 H         1 <0>         0.4292
     57 H25         0.3703    3.5493    0.6391 H         1 <0>         0.1601
     58 H26         2.4828    4.7680    0.3109 H         1 <0>         0.1298
     59 H27         4.3978    3.6506   -0.7576 H         1 <0>         0.1257
     60 H28         4.2098    1.3095   -1.4920 H         1 <0>         0.1282
     61 H29         1.7149   -0.3568   -2.3185 H         1 <0>         0.0739
     62 H30         3.0491   -0.8062   -1.2294 H         1 <0>         0.0736
     63 H31         1.3684   -0.8559   -0.6454 H         1 <0>         0.0651
     64 N3          0.7782   11.5682   -8.9542 N.4       1 <0>        -0.3942
     65 H32         1.1988   10.8725   -9.5813 H         1 <0>         0.4274
@<TRIPOS>BOND
     1    1    2 1
     2    1   33 1
     3    1   34 1
     4    1   35 1
     5    2   36 1
     6    2   37 1
     7    2   64 1
     8    3    4 1
     9    3   38 1
    10    3   39 1
    11    3   64 1
    12    4   40 1
    13    4   41 1
    14    4   42 1
    15    5    6 1
    16    5   43 1
    17    5   44 1
    18    5   64 1
    19    6   11 ar
    20    6    7 ar
    21    7    8 ar
    22    7   45 1
    23    8    9 ar
    24    8   46 1
    25    9   10 ar
    26    9   12 1
    27   10   11 ar
    28   10   47 1
    29   11   48 1
    30   12   13 1
    31   12   49 1
    32   12   50 1
    33   13   14 am
    34   13   51 1
    35   14   15 2
    36   14   16 1
    37   16   21 ar
    38   16   17 ar
    39   17   18 ar
    40   17   52 1
    41   18   19 ar
    42   18   53 1
    43   19   20 ar
    44   19   22 1
    45   20   21 ar
    46   20   54 1
    47   21   55 1
    48   22   23 2
    49   22   24 2
    50   22   25 1
    51   25   26 1
    52   25   56 1
    53   26   31 ar
    54   26   27 ar
    55   27   28 ar
    56   27   57 1
    57   28   29 ar
    58   28   58 1
    59   29   30 ar
    60   29   59 1
    61   30   31 ar
    62   30   60 1
    63   31   32 1
    64   32   61 1
    65   32   62 1
    66   32   63 1
    67   64   65 1
@<TRIPOS>MOLECULE
ZINC35343049
   75    78     0     0     0
SMALL
USER_CHARGES

@<TRIPOS>ATOM
      1 C1         -2.2783    2.6654    6.3599 C.3       1 <0>        -0.1862
      2 C2         -2.3973    1.1402    6.3390 C.3       1 <0>         0.0272
      3 H1         -2.4300    0.7929    5.3063 H         1 <0>         0.1361
      4 C3         -3.6804    0.7194    7.0588 C.3       1 <0>        -0.1408
      5 C4         -3.7952   -0.8075    7.0350 C.3       1 <0>        -0.1395
      6 C5         -2.5440   -1.4138    7.6770 C.3       1 <0>        -0.1457
      7 C6         -1.3031   -0.9140    6.9343 C.3       1 <0>        -0.0116
      8 N1         -1.2366    0.5501    7.0164 N.4       1 <0>        -0.3797
      9 C7         -0.0036    1.0192    6.3702 C.3       1 <0>        -0.0131
     10 C8          1.2083    0.5059    7.1505 C.3       1 <0>        -0.1620
     11 C9          2.4925    0.9945    6.4774 C.3       1 <0>         0.1232
     12 N2          3.6529    0.5030    7.2245 N.am      1 <0>        -0.7377
     13 C10         4.8989    0.8107    6.8132 C.2       1 <0>         0.5228
     14 O1          5.0595    1.4945    5.8245 O.2       1 <0>        -0.5226
     15 C11         6.0925    0.3051    7.5817 C.3       1 <0>        -0.1058
     16 H2          6.0523    0.6811    8.6040 H         1 <0>         0.1008
     17 C12         6.0766   -1.2247    7.6000 C.3       1 <0>        -0.1482
     18 C13         7.3767    0.7937    6.9086 C.3       1 <0>        -0.0673
     19 C14         8.5887    0.2787    7.6883 C.3       1 <0>        -0.1325
     20 C15         9.8727    0.7408    6.9921 C.3       1 <0>         0.1124
     21 N3          9.8290    2.2015    6.8405 N.am      1 <0>        -0.6121
     22 C16         8.6628    2.8092    6.1852 C.3       1 <0>         0.0876
     23 C17         7.3924    2.3239    6.8904 C.3       1 <0>        -0.1370
     24 C18        10.8392    2.9695    7.2944 C.2       1 <0>         0.5878
     25 O2         11.7387    2.4701    7.9438 O.2       1 <0>        -0.5179
     26 C19        10.8543    4.4099    7.0050 C.2       1 <0>         0.0012
     27 C20        11.5031    5.3541    7.7365 C.2       1 <0>        -0.0885
     28 C21        11.2689    6.6092    7.1261 C.ar      1 <0>        -0.1527
     29 C22        11.6754    7.9161    7.4299 C.ar      1 <0>        -0.0162
     30 C23        11.2811    8.9520    6.6367 C.ar      1 <0>        -0.2232
     31 C24        10.4740    8.7245    5.5222 C.ar      1 <0>         0.1634
     32 C25        10.0615    7.4443    5.2039 C.ar      1 <0>        -0.1823
     33 C26        10.4539    6.3740    6.0009 C.ar      1 <0>         0.1515
     34 N4         10.2155    5.0210    5.9413 N.pl3     1 <0>        -0.5816
     35 H3          9.6855    4.5698    5.2657 H         1 <0>         0.4207
     36 O3         10.0901    9.7693    4.7436 O.3       1 <0>        -0.3156
     37 C27        10.5496   11.0670    5.1267 C.3       1 <0>         0.0262
     38 H4         -1.3650    2.9656    5.8463 H         1 <0>         0.0832
     39 H5         -3.1395    3.1040    5.8559 H         1 <0>         0.1068
     40 H6         -2.2455    3.0131    7.3924 H         1 <0>         0.0813
     41 H7         -3.6486    1.0659    8.0918 H         1 <0>         0.0880
     42 H8         -4.5414    1.1571    6.5537 H         1 <0>         0.1123
     43 H9         -4.6780   -1.1154    7.5953 H         1 <0>         0.0953
     44 H10        -3.8785   -1.1508    6.0038 H         1 <0>         0.0820
     45 H11        -2.4887   -1.1115    8.7228 H         1 <0>         0.0874
     46 H12        -2.5928   -2.5009    7.6138 H         1 <0>         0.1125
     47 H13        -0.4105   -1.3439    7.3887 H         1 <0>         0.1306
     48 H14        -1.3594   -1.2170    5.8887 H         1 <0>         0.1291
     49 H15         0.0366    0.6431    5.3479 H         1 <0>         0.1338
     50 H16         0.0078    2.1091    6.3571 H         1 <0>         0.1388
     51 H17         1.1681    0.8819    8.1728 H         1 <0>         0.0943
     52 H18         1.1969   -0.5840    7.1635 H         1 <0>         0.0942
     53 H19         2.5327    0.6184    5.4551 H         1 <0>         0.0779
     54 H20         2.5038    2.0843    6.4644 H         1 <0>         0.0778
     55 H21         3.5244   -0.0440    8.0153 H         1 <0>         0.4030
     56 H22         6.9399   -1.5905    8.1559 H         1 <0>         0.0781
     57 H23         5.1617   -1.5728    8.0795 H         1 <0>         0.0574
     58 H24         6.1168   -1.6008    6.5777 H         1 <0>         0.0638
     59 H25         7.4165    0.4179    5.8862 H         1 <0>         0.0822
     60 H26         8.5629    0.6741    8.7037 H         1 <0>         0.0712
     61 H27         8.5643   -0.8106    7.7209 H         1 <0>         0.0827
     62 H28        10.7364    0.4617    7.5957 H         1 <0>         0.0993
     63 H29         9.9443    0.2735    6.0100 H         1 <0>         0.0715
     64 H30         8.7282    3.8949    6.2563 H         1 <0>         0.0935
     65 H31         8.6357    2.5106    5.1372 H         1 <0>         0.0740
     66 H32         6.5165    2.6903    6.3551 H         1 <0>         0.1011
     67 H33         7.3779    2.7001    7.9134 H         1 <0>         0.0632
     68 H34        12.0915    5.1780    8.6248 H         1 <0>         0.1559
     69 H35        12.2997    8.1018    8.2913 H         1 <0>         0.1325
     70 H36        11.5959    9.9576    6.8735 H         1 <0>         0.1337
     71 H37         9.4364    7.2756    4.3395 H         1 <0>         0.1305
     72 H38        10.1720   11.8086    4.4227 H         1 <0>         0.1024
     73 H39        10.1878   11.2996    6.1283 H         1 <0>         0.0581
     74 H40        11.6395   11.0828    5.1214 H         1 <0>         0.0590
     75 H41        -1.2345    0.8322    7.9852 H         1 <0>         0.4204
@<TRIPOS>BOND
     1    1    2 1
     2    1   38 1
     3    1   39 1
     4    1   40 1
     5    2    3 1
     6    2    8 1
     7    2    4 1
     8    4    5 1
     9    4   41 1
    10    4   42 1
    11    5    6 1
    12    5   43 1
    13    5   44 1
    14    6    7 1
    15    6   45 1
    16    6   46 1
    17    7    8 1
    18    7   47 1
    19    7   48 1
    20    8    9 1
    21    8   75 1
    22    9   10 1
    23    9   49 1
    24    9   50 1
    25   10   11 1
    26   10   51 1
    27   10   52 1
    28   11   12 1
    29   11   53 1
    30   11   54 1
    31   12   13 am
    32   12   55 1
    33   13   14 2
    34   13   15 1
    35   15   16 1
    36   15   17 1
    37   15   18 1
    38   17   56 1
    39   17   57 1
    40   17   58 1
    41   18   23 1
    42   18   19 1
    43   18   59 1
    44   19   20 1
    45   19   60 1
    46   19   61 1
    47   20   21 1
    48   20   62 1
    49   20   63 1
    50   21   22 1
    51   21   24 am
    52   22   23 1
    53   22   64 1
    54   22   65 1
    55   23   66 1
    56   23   67 1
    57   24   25 2
    58   24   26 1
    59   26   34 1
    60   26   27 2
    61   27   28 1
    62   27   68 1
    63   28   33 ar
    64   28   29 ar
    65   29   30 ar
    66   29   69 1
    67   30   31 ar
    68   30   70 1
    69   31   32 ar
    70   31   36 1
    71   32   33 ar
    72   32   71 1
    73   33   34 1
    74   34   35 1
    75   36   37 1
    76   37   72 1
    77   37   73 1
    78   37   74 1
@<TRIPOS>MOLECULE
ZINC39666588
   71    73     0     0     0
SMALL
USER_CHARGES

@<TRIPOS>ATOM
      1 C1          0.0100    1.5214    0.0063 C.3       1 <0>        -0.1546
      2 C2          0.0159   -0.0086   -0.0033 C.3       1 <0>        -0.1253
      3 C3          0.7548   -0.5235    1.2336 C.3       1 <0>        -0.1211
      4 C4          0.7606   -2.0535    1.2239 C.3       1 <0>        -0.1009
      5 C5          1.4995   -2.5684    2.4608 C.3       1 <0>        -0.1057
      6 H1          1.0495   -2.1411    3.3569 H         1 <0>         0.1032
      7 C6          2.9712   -2.1575    2.3836 C.3       1 <0>        -0.1516
      8 C7          1.3997   -4.0711    2.5162 C.2       1 <0>         0.5510
      9 O1          0.7970   -4.6711    1.6515 O.2       1 <0>        -0.5319
     10 N1          1.9802   -4.7482    3.5266 N.am      1 <0>        -0.6185
     11 C8          2.7466   -4.1955    4.6681 C.3       1 <0>         0.1148
     12 C9          2.3157   -5.0528    5.8793 C.3       1 <0>        -0.1163
     13 H2          3.1645   -5.2304    6.5397 H         1 <0>         0.1174
     14 C10         1.8262   -6.3766    5.2686 C.3       1 <0>        -0.0719
     15 C11         1.9908   -6.2139    3.7505 C.3       1 <0>         0.1056
     16 C12         2.6781   -7.5378    5.7720 C.3       1 <0>        -0.1343
     17 C13         2.1359   -8.8494    5.1969 C.3       1 <0>        -0.0099
     18 N2          0.7386   -9.0266    5.6101 N.4       1 <0>        -0.5059
     19 C14        -0.0904   -7.9554    5.0442 C.3       1 <0>        -0.0089
     20 C15         0.3576   -6.6060    5.6129 C.3       1 <0>        -0.1474
     21 C16         1.1997   -4.3748    6.6315 C.2       1 <0>         0.5181
     22 O2          0.4706   -3.5925    6.0595 O.2       1 <0>        -0.5160
     23 N3          1.0119   -4.6378    7.9399 N.am      1 <0>        -0.7268
     24 C17        -0.0730   -3.9788    8.6712 C.3       1 <0>         0.1251
     25 C18        -0.0661   -4.4491   10.1271 C.3       1 <0>         0.0705
     26 H3          0.8890   -4.1944   10.5866 H         1 <0>         0.0848
     27 C19        -1.1992   -3.7607   10.8908 C.3       1 <0>        -0.1827
     28 O3         -0.2534   -5.8651   10.1712 O.3       1 <0>        -0.3016
     29 C20         0.2275   -6.5175   11.2623 C.ar      1 <0>         0.1360
     30 C21         0.7635   -5.7993   12.3210 C.ar      1 <0>        -0.1985
     31 C22         1.2512   -6.4645   13.4293 C.ar      1 <0>        -0.0677
     32 C23         1.2061   -7.8454   13.4841 C.ar      1 <0>        -0.1390
     33 C24         0.6729   -8.5645   12.4305 C.ar      1 <0>        -0.0712
     34 C25         0.1778   -7.9035   11.3217 C.ar      1 <0>        -0.0677
     35 Cl1        -0.4982   -8.8061   10.0019 Cl        1 <0>        -0.0767
     36 H4          1.0362    1.8887   -0.0043 H         1 <0>         0.0540
     37 H5         -0.5163    1.8882   -0.8749 H         1 <0>         0.0556
     38 H6         -0.4940    1.8772    0.9049 H         1 <0>         0.0536
     39 H7         -1.0103   -0.3759    0.0073 H         1 <0>         0.0614
     40 H8          0.5199   -0.3643   -0.9019 H         1 <0>         0.0621
     41 H9          1.7809   -0.1562    1.2230 H         1 <0>         0.0655
     42 H10         0.2508   -0.1678    2.1322 H         1 <0>         0.0623
     43 H11        -0.2655   -2.4208    1.2345 H         1 <0>         0.0700
     44 H12         1.2646   -2.4092    0.3253 H         1 <0>         0.0692
     45 H13         3.0434   -1.0706    2.3436 H         1 <0>         0.0755
     46 H14         3.4976   -2.5244    3.2648 H         1 <0>         0.0592
     47 H15         3.4212   -2.5848    1.4875 H         1 <0>         0.0619
     48 H16         3.8174   -4.2977    4.4920 H         1 <0>         0.0897
     49 H17         2.4854   -3.1498    4.8305 H         1 <0>         0.1013
     50 H18         1.1595   -6.6848    3.2258 H         1 <0>         0.0871
     51 H19         2.9389   -6.6417    3.4247 H         1 <0>         0.0833
     52 H20         3.7101   -7.3984    5.4499 H         1 <0>         0.1222
     53 H21         2.6377   -7.5736    6.8606 H         1 <0>         0.0973
     54 H22         2.1917   -8.8193    4.1087 H         1 <0>         0.1338
     55 H23         2.7327   -9.6827    5.5679 H         1 <0>         0.1402
     56 H24         0.4027   -9.9194    5.2813 H         1 <0>         0.4338
     57 H25         0.0184   -7.9465    3.9597 H         1 <0>         0.1350
     58 H26        -1.1349   -8.1296    5.3027 H         1 <0>         0.1377
     59 H27         0.2338   -6.6084    6.6959 H         1 <0>         0.0991
     60 H28        -0.2467   -5.8095    5.1788 H         1 <0>         0.1211
     61 H29         1.5951   -5.2635    8.3974 H         1 <0>         0.4015
     62 H30         0.0698   -2.8987    8.6376 H         1 <0>         0.0957
     63 H31        -1.0281   -4.2334    8.2117 H         1 <0>         0.0836
     64 H32        -2.1542   -4.0154   10.4313 H         1 <0>         0.0751
     65 H33        -1.1942   -4.0958   11.9281 H         1 <0>         0.0730
     66 H34        -1.0563   -2.6807   10.8572 H         1 <0>         0.0819
     67 H35         0.7998   -4.7207   12.2789 H         1 <0>         0.1404
     68 H36         1.6686   -5.9053   14.2536 H         1 <0>         0.1364
     69 H37         1.5883   -8.3633   14.3513 H         1 <0>         0.1384
     70 H38         0.6395   -9.6430   12.4754 H         1 <0>         0.1413
     71 H39         0.6809   -8.9984    6.6170 H         1 <0>         0.4268
@<TRIPOS>BOND
     1    1    2 1
     2    1   36 1
     3    1   37 1
     4    1   38 1
     5    2    3 1
     6    2   39 1
     7    2   40 1
     8    3    4 1
     9    3   41 1
    10    3   42 1
    11    4    5 1
    12    4   43 1
    13    4   44 1
    14    5    6 1
    15    5    7 1
    16    5    8 1
    17    7   45 1
    18    7   46 1
    19    7   47 1
    20    8    9 2
    21    8   10 am
    22   10   15 1
    23   10   11 1
    24   11   12 1
    25   11   48 1
    26   11   49 1
    27   12   13 1
    28   12   14 1
    29   12   21 1
    30   14   20 1
    31   14   15 1
    32   14   16 1
    33   15   50 1
    34   15   51 1
    35   16   17 1
    36   16   52 1
    37   16   53 1
    38   17   18 1
    39   17   54 1
    40   17   55 1
    41   18   19 1
    42   18   56 1
    43   18   71 1
    44   19   20 1
    45   19   57 1
    46   19   58 1
    47   20   59 1
    48   20   60 1
    49   21   22 2
    50   21   23 am
    51   23   24 1
    52   23   61 1
    53   24   25 1
    54   24   62 1
    55   24   63 1
    56   25   26 1
    57   25   27 1
    58   25   28 1
    59   27   64 1
    60   27   65 1
    61   27   66 1
    62   28   29 1
    63   29   34 ar
    64   29   30 ar
    65   30   31 ar
    66   30   67 1
    67   31   32 ar
    68   31   68 1
    69   32   33 ar
    70   32   69 1
    71   33   34 ar
    72   33   70 1
    73   34   35 1
@<TRIPOS>MOLECULE
ZINC59890738
   66    68     0     0     0
SMALL
USER_CHARGES

@<TRIPOS>ATOM
      1 C1         -0.1798    1.6384    0.1696 C.3       1 <0>        -0.1533
      2 C2          0.2173    0.1706   -0.0003 C.3       1 <0>        -0.0979
      3 H1          1.1372    0.1080   -0.5817 H         1 <0>         0.0633
      4 C3         -0.8993   -0.5787   -0.7300 C.3       1 <0>        -0.1287
      5 C4         -0.5022   -2.0465   -0.8999 C.3       1 <0>        -0.1340
      6 C5         -0.2795   -2.6771    0.4762 C.3       1 <0>        -0.1404
      7 C6          0.8371   -1.9278    1.2060 C.3       1 <0>         0.0502
      8 C7          0.4400   -0.4600    1.3758 C.3       1 <0>        -0.1321
      9 C8          1.0598   -2.5584    2.5821 C.3       1 <0>         0.1029
     10 N1          1.2966   -3.9959    2.4280 N.am      1 <0>        -0.7524
     11 C9          1.6507   -4.7388    3.4953 C.2       1 <0>         0.5650
     12 O1          1.7736   -4.2161    4.5858 O.2       1 <0>        -0.4996
     13 C10         1.8897   -6.1895    3.3398 C.ar      1 <0>        -0.1674
     14 C11         1.7550   -6.7918    2.0877 C.ar      1 <0>        -0.0384
     15 C12         1.9798   -8.1457    1.9493 C.ar      1 <0>        -0.1395
     16 C13         2.3377   -8.9066    3.0483 C.ar      1 <0>         0.0205
     17 C14         2.4729   -8.3159    4.2919 C.ar      1 <0>        -0.6778
     18 C15         2.2565   -6.9616    4.4429 C.ar      1 <0>         0.0493
     19 S1          2.9284   -9.2940    5.6849 S.o2      1 <0>         2.6891
     20 O2          2.4567   -8.6065    6.8356 O.2       1 <0>        -0.9373
     21 O3          2.5466  -10.6297    5.3856 O.2       1 <0>        -0.9383
     22 N2          4.5821   -9.2826    5.7715 N.pl3     1 <0>        -1.0419
     23 C16         5.2659   -8.0725    5.9367 C.ar      1 <0>         0.1198
     24 C17         4.7177   -7.0648    6.7166 C.ar      1 <0>        -0.1386
     25 C18         5.3951   -5.8709    6.8787 C.ar      1 <0>        -0.1219
     26 C19         6.6189   -5.6778    6.2650 C.ar      1 <0>        -0.0914
     27 C20         7.1715   -6.6778    5.4861 C.ar      1 <0>        -0.1877
     28 C21         6.5015   -7.8791    5.3230 C.ar      1 <0>         0.1124
     29 O4          7.0463   -8.8655    4.5614 O.3       1 <0>        -0.3149
     30 C22         8.3158   -8.5969    3.9629 C.3       1 <0>         0.0265
     31 N3          2.0768   -2.0121    0.4223 N.4       1 <0>        -0.3787
     32 C23         3.1811   -1.4179    1.1874 C.3       1 <0>        -0.0607
     33 C24         2.3809   -3.4207    0.1371 C.3       1 <0>        -0.0890
     34 H2          0.6157    2.1722    0.6895 H         1 <0>         0.0633
     35 H3         -0.3384    2.0876   -0.8108 H         1 <0>         0.0688
     36 H4         -1.0996    1.7009    0.7511 H         1 <0>         0.0672
     37 H5         -1.8191   -0.5161   -0.1485 H         1 <0>         0.0824
     38 H6         -1.0579   -0.1294   -1.7104 H         1 <0>         0.0834
     39 H7         -1.2977   -2.5803   -1.4197 H         1 <0>         0.0959
     40 H8          0.4177   -2.1090   -1.4813 H         1 <0>         0.0581
     41 H9         -1.1993   -2.6145    1.0577 H         1 <0>         0.1182
     42 H10         0.0034   -3.7228    0.3552 H         1 <0>         0.0842
     43 H11         1.2355    0.0738    1.8957 H         1 <0>         0.0954
     44 H12        -0.4798   -0.3975    1.9573 H         1 <0>         0.1174
     45 H13         1.9250   -2.0966    3.0577 H         1 <0>         0.1036
     46 H14         0.1770   -2.3999    3.2015 H         1 <0>         0.1152
     47 H15         1.1985   -4.4130    1.5577 H         1 <0>         0.4009
     48 H16         1.4750   -6.1992    1.2293 H         1 <0>         0.1253
     49 H17         1.8760   -8.6130    0.9812 H         1 <0>         0.1472
     50 H18         2.5119   -9.9664    2.9348 H         1 <0>         0.1535
     51 H19         2.3663   -6.5008    5.4135 H         1 <0>         0.1577
     52 H20         5.0769  -10.1145    5.7077 H         1 <0>         0.4336
     53 H21         3.7617   -7.2129    7.1968 H         1 <0>         0.1672
     54 H22         4.9672   -5.0868    7.4858 H         1 <0>         0.1346
     55 H23         7.1445   -4.7432    6.3941 H         1 <0>         0.1295
     56 H24         8.1276   -6.5237    5.0082 H         1 <0>         0.1344
     57 H25         8.2317   -7.7317    3.3052 H         1 <0>         0.0550
     58 H26         9.0488   -8.3904    4.7429 H         1 <0>         0.0596
     59 H27         8.6354   -9.4635    3.3842 H         1 <0>         0.1044
     60 H28         3.3724   -2.0194    2.0761 H         1 <0>         0.1260
     61 H29         4.0778   -1.3891    0.5684 H         1 <0>         0.1292
     62 H30         2.9126   -0.4044    1.4855 H         1 <0>         0.1293
     63 H31         1.5013   -3.9033   -0.2888 H         1 <0>         0.1274
     64 H32         3.2061   -3.4777   -0.5728 H         1 <0>         0.1329
     65 H33         2.6611   -3.9263    1.0612 H         1 <0>         0.1372
     66 H34         1.9608   -1.5106   -0.4455 H         1 <0>         0.4251
@<TRIPOS>BOND
     1    1    2 1
     2    1   34 1
     3    1   35 1
     4    1   36 1
     5    2    3 1
     6    2    8 1
     7    2    4 1
     8    4    5 1
     9    4   37 1
    10    4   38 1
    11    5    6 1
    12    5   39 1
    13    5   40 1
    14    6    7 1
    15    6   41 1
    16    6   42 1
    17    7    8 1
    18    7    9 1
    19    7   31 1
    20    8   43 1
    21    8   44 1
    22    9   10 1
    23    9   45 1
    24    9   46 1
    25   10   11 am
    26   10   47 1
    27   11   12 2
    28   11   13 1
    29   13   18 ar
    30   13   14 ar
    31   14   15 ar
    32   14   48 1
    33   15   16 ar
    34   15   49 1
    35   16   17 ar
    36   16   50 1
    37   17   18 ar
    38   17   19 1
    39   18   51 1
    40   19   20 2
    41   19   21 2
    42   19   22 1
    43   22   23 1
    44   22   52 1
    45   23   28 ar
    46   23   24 ar
    47   24   25 ar
    48   24   53 1
    49   25   26 ar
    50   25   54 1
    51   26   27 ar
    52   26   55 1
    53   27   28 ar
    54   27   56 1
    55   28   29 1
    56   29   30 1
    57   30   57 1
    58   30   58 1
    59   30   59 1
    60   31   32 1
    61   31   33 1
    62   31   66 1
    63   32   60 1
    64   32   61 1
    65   32   62 1
    66   33   63 1
    67   33   64 1
    68   33   65 1
@<TRIPOS>MOLECULE
ZINC64518594
   69    73     0     0     0
SMALL
USER_CHARGES

@<TRIPOS>ATOM
      1 C1         -0.3190    1.8414    0.1347 C.3       1 <0>        -0.1018
      2 C2         -1.8108    2.0548    0.1425 C.2       1 <0>         0.2698
      3 C3         -2.7168    1.0604    0.0874 C.2       1 <0>        -0.3838
      4 C4         -4.0843    1.7080    0.1195 C.3       1 <0>         0.1897
      5 N1         -3.8016    3.1512    0.1976 N.pl3     1 <0>        -0.4506
      6 N2         -2.4063    3.2739    0.2120 N.pl3     1 <0>        -0.5078
      7 C5         -4.7360    4.1880    0.2511 C.ar      1 <0>         0.2359
      8 C6         -6.0952    3.9014    0.2385 C.ar      1 <0>        -0.1851
      9 C7         -7.0164    4.9289    0.2920 C.ar      1 <0>        -0.0663
     10 C8         -6.5871    6.2418    0.3576 C.ar      1 <0>        -0.1723
     11 C9         -5.2348    6.5306    0.3704 C.ar      1 <0>        -0.0654
     12 C10        -4.3082    5.5076    0.3229 C.ar      1 <0>        -0.1951
     13 C11        -2.4428   -0.3252    0.0130 C.2       1 <0>         0.6061
     14 O1         -1.2988   -0.7122   -0.1431 O.2       1 <0>        -0.5589
     15 N3         -3.4479   -1.2173    0.1150 N.am      1 <0>        -0.6162
     16 C12        -3.1648   -2.6550    0.2226 C.3       1 <0>         0.1154
     17 C13        -3.9489   -3.3948   -0.8658 C.3       1 <0>        -0.1299
     18 C14        -5.4324   -3.0362   -0.7531 C.3       1 <0>        -0.0714
     19 C15        -5.6129   -1.5315   -0.9660 C.3       1 <0>        -0.1329
     20 C16        -4.8474   -0.7701    0.1269 C.3       1 <0>         0.0711
     21 C17        -6.2237   -3.8000   -1.8168 C.3       1 <0>        -0.1378
     22 C18        -7.6966   -3.5429   -1.6283 C.2       1 <0>         0.5186
     23 O2         -8.0761   -2.8199   -0.7315 O.2       1 <0>        -0.5248
     24 N4         -8.5921   -4.1164   -2.4563 N.am      1 <0>        -0.7399
     25 C19       -10.0240   -3.8664   -2.2731 C.3       1 <0>         0.1258
     26 C20       -10.8152   -4.6302   -3.3368 C.3       1 <0>        -0.1054
     27 C21       -12.2881   -4.3731   -3.1483 C.2       1 <0>         0.0709
     28 C22       -13.0390   -3.4437   -3.7822 C.ar      1 <0>        -0.1675
     29 C23       -12.7212   -2.4320   -4.7970 C.ar      1 <0>        -0.0125
     30 C24       -13.7074   -1.6252   -5.2503 C.ar      1 <0>        -0.1503
     31 C25       -15.0222   -1.7304   -4.7761 C.ar      1 <0>         0.0550
     32 C26       -15.3912   -2.6349   -3.8445 C.ar      1 <0>        -0.2099
     33 C27       -14.4350   -3.5348   -3.2981 C.ar      1 <0>         0.3279
     34 N5        -14.5430   -4.4837   -2.4000 N.pl3     1 <0>        -0.5850
     35 C28       -13.2273   -5.1065   -2.2169 C.3       1 <0>         0.0604
     36 H1          0.1863    2.8055    0.1923 H         1 <0>         0.0688
     37 H2         -0.0349    1.2305    0.9916 H         1 <0>         0.1001
     38 H3         -0.0294    1.3337   -0.7853 H         1 <0>         0.1037
     39 H4         -4.6372    1.4767   -0.7909 H         1 <0>         0.0754
     40 H5         -4.6406    1.3806    0.9979 H         1 <0>         0.0747
     41 H6         -1.9290    4.1168    0.2627 H         1 <0>         0.4325
     42 H7         -6.4311    2.8763    0.1865 H         1 <0>         0.1229
     43 H8         -8.0733    4.7069    0.2822 H         1 <0>         0.1263
     44 H9         -7.3096    7.0435    0.3987 H         1 <0>         0.1233
     45 H10        -4.9029    7.5571    0.4218 H         1 <0>         0.1261
     46 H11        -3.2522    5.7336    0.3375 H         1 <0>         0.1151
     47 H12        -2.0974   -2.8284    0.0858 H         1 <0>         0.0955
     48 H13        -3.4728   -3.0157    1.2040 H         1 <0>         0.0639
     49 H14        -3.5767   -3.0994   -1.8468 H         1 <0>         0.0691
     50 H15        -3.8237   -4.4699   -0.7373 H         1 <0>         0.0753
     51 H16        -5.7979   -3.3093    0.2369 H         1 <0>         0.0811
     52 H17        -5.2251   -1.2536   -1.9460 H         1 <0>         0.0612
     53 H18        -6.6721   -1.2804   -0.9088 H         1 <0>         0.0880
     54 H19        -5.2899   -0.9802    1.1007 H         1 <0>         0.0654
     55 H20        -4.8907    0.3005   -0.0731 H         1 <0>         0.1164
     56 H21        -5.9199   -3.4626   -2.8077 H         1 <0>         0.0977
     57 H22        -6.0259   -4.8675   -1.7200 H         1 <0>         0.0990
     58 H23        -8.2886   -4.6946   -3.1736 H         1 <0>         0.4063
     59 H24       -10.3278   -4.2038   -1.2822 H         1 <0>         0.0770
     60 H25       -10.2218   -2.7989   -2.3699 H         1 <0>         0.0778
     61 H26       -10.5114   -4.2928   -4.3277 H         1 <0>         0.1158
     62 H27       -10.6174   -5.6977   -3.2400 H         1 <0>         0.1188
     63 H28       -11.7146   -2.3331   -5.1758 H         1 <0>         0.1605
     64 H29       -13.4757   -0.8801   -5.9971 H         1 <0>         0.1582
     65 H30       -15.7707   -1.0601   -5.1721 H         1 <0>         0.1613
     66 H31       -16.4179   -2.6751   -3.5119 H         1 <0>         0.1608
     67 H32       -13.2694   -6.1631   -2.4813 H         1 <0>         0.1752
     68 H33       -12.8991   -4.9898   -1.1841 H         1 <0>         0.1744
     69 H34       -15.3575   -4.7347   -1.9368 H         1 <0>         0.4563
@<TRIPOS>BOND
     1    1    2 1
     2    1   36 1
     3    1   37 1
     4    1   38 1
     5    2    6 1
     6    2    3 2
     7    3    4 1
     8    3   13 1
     9    4    5 1
    10    4   39 1
    11    4   40 1
    12    5    6 1
    13    5    7 1
    14    6   41 1
    15    7   12 ar
    16    7    8 ar
    17    8    9 ar
    18    8   42 1
    19    9   10 ar
    20    9   43 1
    21   10   11 ar
    22   10   44 1
    23   11   12 ar
    24   11   45 1
    25   12   46 1
    26   13   14 2
    27   13   15 am
    28   15   20 1
    29   15   16 1
    30   16   17 1
    31   16   47 1
    32   16   48 1
    33   17   18 1
    34   17   49 1
    35   17   50 1
    36   18   19 1
    37   18   21 1
    38   18   51 1
    39   19   20 1
    40   19   52 1
    41   19   53 1
    42   20   54 1
    43   20   55 1
    44   21   22 1
    45   21   56 1
    46   21   57 1
    47   22   23 2
    48   22   24 am
    49   24   25 1
    50   24   58 1
    51   25   26 1
    52   25   59 1
    53   25   60 1
    54   26   27 1
    55   26   61 1
    56   26   62 1
    57   27   35 1
    58   27   28 2
    59   28   33 ar
    60   28   29 ar
    61   29   30 ar
    62   29   63 1
    63   30   31 ar
    64   30   64 1
    65   31   32 ar
    66   31   65 1
    67   32   33 ar
    68   32   66 1
    69   33   34 2
    70   34   35 1
    71   34   69 1
    72   35   67 1
    73   35   68 1
@<TRIPOS>MOLECULE
ZINC16627812
   60    61     0     0     0
SMALL
USER_CHARGES
N-(2,4-dichlorophenyl)-2-[[2-oxo-2-[(3,4,5-trimethoxyphenyl)amino]ethyl]-propyl-amino]acetamide
@<TRIPOS>ATOM
      1 C1          0.5059   -0.9580    2.8237 C.3       1 <0>        -0.1549
      2 C2          0.6794   -0.2451    1.4811 C.3       1 <0>        -0.1488
      3 C3          2.0308    0.4718    1.4553 C.3       1 <0>        -0.0169
      4 C4          1.1787    2.3488    0.1851 C.3       1 <0>        -0.0322
      5 C5          0.9828    2.8095   -1.2363 C.2       1 <0>         0.5020
      6 O1          1.6547    2.3327   -2.1264 O.2       1 <0>        -0.5063
      7 N1          0.0648    3.7554   -1.5177 N.am      1 <0>        -0.6426
      8 C6         -0.1985    4.1016   -2.8487 C.ar      1 <0>         0.1367
      9 C7         -0.1291    3.1370   -3.8450 C.ar      1 <0>        -0.0901
     10 C8         -0.3891    3.4810   -5.1571 C.ar      1 <0>        -0.0837
     11 C9         -0.7188    4.7858   -5.4799 C.ar      1 <0>        -0.0251
     12 C10        -0.7884    5.7496   -4.4897 C.ar      1 <0>        -0.0809
     13 C11        -0.5352    5.4098   -3.1740 C.ar      1 <0>        -0.0424
     14 Cl1        -0.6302    6.6176   -1.9307 Cl        1 <0>        -0.0404
     15 Cl2        -1.0449    5.2140   -7.1303 Cl        1 <0>        -0.0354
     16 C12         3.5195    1.7482    0.0349 C.3       1 <0>        -0.0293
     17 C13         4.4559    0.5865   -0.1764 C.2       1 <0>         0.5074
     18 O2          4.0249   -0.5473   -0.1782 O.2       1 <0>        -0.5047
     19 N2          5.7722    0.8074   -0.3633 N.am      1 <0>        -0.6440
     20 C14         6.6234   -0.2594   -0.6794 C.ar      1 <0>         0.1978
     21 C15         7.9286   -0.2688   -0.2067 C.ar      1 <0>        -0.2495
     22 C16         8.7700   -1.3262   -0.5148 C.ar      1 <0>         0.1722
     23 C17         8.3100   -2.3720   -1.3062 C.ar      1 <0>         0.0308
     24 C18         7.0047   -2.3591   -1.7834 C.ar      1 <0>         0.1696
     25 C19         6.1631   -1.3035   -1.4698 C.ar      1 <0>        -0.2301
     26 O3          6.5536   -3.3816   -2.5582 O.3       1 <0>        -0.2937
     27 C20         5.2016   -3.3025   -3.0141 C.3       1 <0>         0.0246
     28 O4          9.1373   -3.4088   -1.6134 O.3       1 <0>        -0.3103
     29 C21         9.9191   -3.2844   -2.8031 C.3       1 <0>         0.0343
     30 O5         10.0470   -1.3378   -0.0473 O.3       1 <0>        -0.2937
     31 C22        10.4524   -0.2307    0.7601 C.3       1 <0>         0.0224
     32 H1          0.5447   -0.2267    3.6310 H         1 <0>         0.0671
     33 H2         -0.4569   -1.4687    2.8421 H         1 <0>         0.0789
     34 H3          1.3061   -1.6864    2.9544 H         1 <0>         0.0698
     35 H4         -0.1208    0.4833    1.3503 H         1 <0>         0.0813
     36 H5          0.6406   -0.9764    0.6737 H         1 <0>         0.0908
     37 H6          2.8335   -0.2641    1.5026 H         1 <0>         0.1490
     38 H7          2.1024    1.1431    2.3110 H         1 <0>         0.1352
     39 H8          1.5512    3.1773    0.7875 H         1 <0>         0.1720
     40 H9          0.2270    2.0044    0.5898 H         1 <0>         0.1721
     41 H10        -0.4135    4.1963   -0.7982 H         1 <0>         0.4239
     42 H11         0.1278    2.1185   -3.5941 H         1 <0>         0.1513
     43 H12        -0.3355    2.7307   -5.9321 H         1 <0>         0.1512
     44 H13        -1.0459    6.7672   -4.7443 H         1 <0>         0.1566
     45 H14         3.5554    2.4064   -0.8332 H         1 <0>         0.1674
     46 H15         3.8224    2.3021    0.9236 H         1 <0>         0.1664
     47 H16         6.1302    1.7050   -0.2790 H         1 <0>         0.4219
     48 H17         8.2873    0.5461    0.4046 H         1 <0>         0.1426
     49 H18         5.1489   -1.2931   -1.8409 H         1 <0>         0.1459
     50 H19         4.9707   -4.1786   -3.6201 H         1 <0>         0.1081
     51 H20         4.5303   -3.2670   -2.1561 H         1 <0>         0.0597
     52 H21         5.0725   -2.4016   -3.6140 H         1 <0>         0.0555
     53 H22        10.5323   -4.1767   -2.9298 H         1 <0>         0.0982
     54 H23         9.2579   -3.1729   -3.6624 H         1 <0>         0.0462
     55 H24        10.5636   -2.4089   -2.7244 H         1 <0>         0.0467
     56 H25        10.3591    0.6911    0.1860 H         1 <0>         0.0589
     57 H26         9.8173   -0.1740    1.6442 H         1 <0>         0.0590
     58 H27        11.4899   -0.3647    1.0661 H         1 <0>         0.1095
     59 N3          2.1442    1.2297    0.1914 N.4       1 <0>        -0.3704
     60 H28         1.9329    0.6025   -0.5937 H         1 <0>         0.4422
@<TRIPOS>BOND
     1    1    2 1
     2    1   32 1
     3    1   33 1
     4    1   34 1
     5    2    3 1
     6    2   35 1
     7    2   36 1
     8    3   37 1
     9    3   38 1
    10    3   59 1
    11    4    5 1
    12    4   39 1
    13    4   40 1
    14    4   59 1
    15    5    6 2
    16    5    7 am
    17    7    8 1
    18    7   41 1
    19    8   13 ar
    20    8    9 ar
    21    9   10 ar
    22    9   42 1
    23   10   11 ar
    24   10   43 1
    25   11   12 ar
    26   11   15 1
    27   12   13 ar
    28   12   44 1
    29   13   14 1
    30   16   17 1
    31   16   45 1
    32   16   46 1
    33   16   59 1
    34   17   18 2
    35   17   19 am
    36   19   20 1
    37   19   47 1
    38   20   25 ar
    39   20   21 ar
    40   21   22 ar
    41   21   48 1
    42   22   23 ar
    43   22   30 1
    44   23   24 ar
    45   23   28 1
    46   24   25 ar
    47   24   26 1
    48   25   49 1
    49   26   27 1
    50   27   50 1
    51   27   51 1
    52   27   52 1
    53   28   29 1
    54   29   53 1
    55   29   54 1
    56   29   55 1
    57   30   31 1
    58   31   56 1
    59   31   57 1
    60   31   58 1
    61   59   60 1
@<TRIPOS>MOLECULE
ZINC35746444
   74    76     0     0     0
SMALL
USER_CHARGES

@<TRIPOS>ATOM
      1 C1          4.5125   -0.9403    2.1636 C.3       1 <0>        -0.1204
      2 C2          3.9064   -2.3106    2.0030 C.ar      1 <0>        -0.0661
      3 C3          3.8719   -2.9069    0.7550 C.ar      1 <0>        -0.1269
      4 C4          3.3182   -4.1614    0.6018 C.ar      1 <0>        -0.0912
      5 C5          2.7929   -4.8283    1.7079 C.ar      1 <0>        -0.0592
      6 C6          2.8305   -4.2226    2.9629 C.ar      1 <0>        -0.0375
      7 C7          3.3919   -2.9697    3.1048 C.ar      1 <0>        -0.1209
      8 C8          2.2648   -4.9368    4.1633 C.3       1 <0>        -0.1105
      9 C9          2.1963   -6.1761    1.5499 C.2       1 <0>        -0.0160
     10 C10         2.9626   -7.2315    1.1826 C.2       1 <0>        -0.1582
     11 S1          1.8042   -8.5854    1.1341 S.3       1 <0>         0.1943
     12 C11         0.3329   -7.7119    1.6034 C.2       1 <0>         0.0652
     13 C12         0.7750   -6.3924    1.7925 C.2       1 <0>        -0.1986
     14 C13        -0.2295   -5.4528    2.1895 C.2       1 <0>         0.5520
     15 O1          0.0564   -4.2821    2.3734 O.2       1 <0>        -0.4717
     16 N1         -1.4943   -5.8816    2.3562 N.am      1 <0>        -0.6246
     17 H1         -2.1790   -5.2494    2.6251 H         1 <0>         0.4258
     18 C14        -1.8307   -7.1815    2.1549 C.2       1 <0>         0.3582
     19 N2         -0.9387   -8.0599    1.7825 N.2       1 <0>        -0.4871
     20 C15        -3.2600   -7.6158    2.3532 C.3       1 <0>         0.0459
     21 N3         -3.4106   -9.0137    1.9274 N.4       1 <0>        -0.3638
     22 C16        -3.2157   -9.1066    0.4744 C.3       1 <0>        -0.0389
     23 C17        -4.3378   -8.3508   -0.2401 C.3       1 <0>        -0.1421
     24 C18        -4.0616   -8.3308   -1.7448 C.3       1 <0>        -0.0885
     25 C19        -4.1217   -9.7579   -2.2934 C.3       1 <0>        -0.1574
     26 C20        -5.1151   -7.4704   -2.4454 C.3       1 <0>        -0.1536
     27 C21        -4.7574   -9.4882    2.2722 C.3       1 <0>        -0.0538
     28 C22        -4.8627  -10.9851    1.9738 C.3       1 <0>         0.0919
     29 H2         -4.0490  -11.5129    2.4713 H         1 <0>         0.1326
     30 C23        -6.2032  -11.5145    2.4872 C.3       1 <0>         0.0276
     31 O2         -6.2534  -12.9321    2.3140 O.3       1 <0>        -0.3610
     32 C24        -7.4708  -13.5299    2.7641 C.3       1 <0>         0.1102
     33 C25        -8.6478  -12.9380    1.9861 C.3       1 <0>        -0.1811
     34 C26        -7.4136  -15.0409    2.5310 C.3       1 <0>        -0.1420
     35 C27        -7.6544  -13.2507    4.2572 C.3       1 <0>        -0.1821
     36 O3         -4.7757  -11.1969    0.5632 O.3       1 <0>        -0.5351
     37 H3          5.5772   -1.0365    2.3760 H         1 <0>         0.0748
     38 H4          4.3754   -0.3723    1.2434 H         1 <0>         0.0691
     39 H5          4.0231   -0.4208    2.9875 H         1 <0>         0.0683
     40 H6          4.2787   -2.3892   -0.1011 H         1 <0>         0.1258
     41 H7          3.2915   -4.6257   -0.3729 H         1 <0>         0.1219
     42 H8          3.4259   -2.5014    4.0774 H         1 <0>         0.1238
     43 H9          3.0461   -5.5358    4.6312 H         1 <0>         0.0701
     44 H10         1.8907   -4.2046    4.8788 H         1 <0>         0.0678
     45 H11         1.4485   -5.5867    3.8480 H         1 <0>         0.0537
     46 H12         4.0212   -7.2482    0.9696 H         1 <0>         0.2071
     47 H13        -3.5241   -7.5265    3.4070 H         1 <0>         0.1674
     48 H14        -3.9181   -6.9820    1.7588 H         1 <0>         0.1641
     49 H15        -2.2545   -8.6671    0.2079 H         1 <0>         0.1364
     50 H16        -3.2329  -10.1537    0.1718 H         1 <0>         0.1697
     51 H17        -5.2888   -8.8491   -0.0518 H         1 <0>         0.0832
     52 H18        -4.3830   -7.3282    0.1346 H         1 <0>         0.0781
     53 H19        -3.0715   -7.9130   -1.9270 H         1 <0>         0.0781
     54 H20        -5.1118  -10.1757   -2.1112 H         1 <0>         0.0604
     55 H21        -3.9250   -9.7436   -3.3654 H         1 <0>         0.0662
     56 H22        -3.3712  -10.3709   -1.7943 H         1 <0>         0.0619
     57 H23        -5.0723   -6.4538   -2.0546 H         1 <0>         0.0566
     58 H24        -4.9183   -7.4562   -3.5174 H         1 <0>         0.0674
     59 H25        -6.1052   -7.8883   -2.2632 H         1 <0>         0.0601
     60 H26        -4.9434   -9.3151    3.3321 H         1 <0>         0.1465
     61 H27        -5.4958   -8.9470    1.6806 H         1 <0>         0.1427
     62 H28        -6.3077  -11.2738    3.5452 H         1 <0>         0.0703
     63 H29        -7.0154  -11.0510    1.9272 H         1 <0>         0.0654
     64 H30        -8.5170  -13.1368    0.9224 H         1 <0>         0.0678
     65 H31        -9.5764  -13.3940    2.3295 H         1 <0>         0.0739
     66 H32        -8.6885  -11.8615    2.1522 H         1 <0>         0.0557
     67 H33        -6.5751  -15.4626    3.0853 H         1 <0>         0.0663
     68 H34        -8.3422  -15.4969    2.8744 H         1 <0>         0.0767
     69 H35        -7.2828  -15.2398    1.4673 H         1 <0>         0.0669
     70 H36        -7.6951  -12.1742    4.4233 H         1 <0>         0.0563
     71 H37        -8.5830  -13.7067    4.6006 H         1 <0>         0.0742
     72 H38        -6.8159  -13.6724    4.8115 H         1 <0>         0.0675
     73 H39        -5.4702  -10.7552    0.0556 H         1 <0>         0.3842
     74 H40        -2.7228   -9.5840    2.3962 H         1 <0>         0.4381
@<TRIPOS>BOND
     1    1    2 1
     2    1   37 1
     3    1   38 1
     4    1   39 1
     5    2    7 ar
     6    2    3 ar
     7    3    4 ar
     8    3   40 1
     9    4    5 ar
    10    4   41 1
    11    5    6 ar
    12    5    9 1
    13    6    7 ar
    14    6    8 1
    15    7   42 1
    16    8   43 1
    17    8   44 1
    18    8   45 1
    19    9   13 1
    20    9   10 2
    21   10   11 1
    22   10   46 1
    23   11   12 1
    24   12   19 1
    25   12   13 2
    26   13   14 1
    27   14   15 2
    28   14   16 am
    29   16   17 1
    30   16   18 1
    31   18   19 2
    32   18   20 1
    33   20   21 1
    34   20   47 1
    35   20   48 1
    36   21   22 1
    37   21   27 1
    38   21   74 1
    39   22   23 1
    40   22   49 1
    41   22   50 1
    42   23   24 1
    43   23   51 1
    44   23   52 1
    45   24   25 1
    46   24   26 1
    47   24   53 1
    48   25   54 1
    49   25   55 1
    50   25   56 1
    51   26   57 1
    52   26   58 1
    53   26   59 1
    54   27   28 1
    55   27   60 1
    56   27   61 1
    57   28   29 1
    58   28   30 1
    59   28   36 1
    60   30   31 1
    61   30   62 1
    62   30   63 1
    63   31   32 1
    64   32   33 1
    65   32   34 1
    66   32   35 1
    67   33   64 1
    68   33   65 1
    69   33   66 1
    70   34   67 1
    71   34   68 1
    72   34   69 1
    73   35   70 1
    74   35   71 1
    75   35   72 1
    76   36   73 1
@<TRIPOS>MOLECULE
ZINC38905302
   61    64     0     0     0
SMALL
USER_CHARGES

@<TRIPOS>ATOM
      1 C1          3.4399    2.6636    4.3096 C.2       1 <0>        -0.1525
      2 C2          2.8367    1.7780    3.5560 C.2       1 <0>        -0.1905
      3 C3          3.6344    0.6866    2.8900 C.3       1 <0>         0.1484
      4 N1          3.0757   -0.6180    3.2535 N.am      1 <0>        -0.7169
      5 C4          3.6314   -1.7471    2.7712 C.2       1 <0>         0.5666
      6 O1          4.5966   -1.6831    2.0344 O.2       1 <0>        -0.5522
      7 C5          3.0687   -3.0608    3.1371 C.ar      1 <0>        -0.1597
      8 C6          2.0362   -3.1465    4.0740 C.ar      1 <0>        -0.0686
      9 C7          1.5145   -4.3766    4.4113 C.ar      1 <0>        -0.1269
     10 C8          2.0090   -5.5308    3.8255 C.ar      1 <0>        -0.0715
     11 C9          3.0293   -5.4619    2.8985 C.ar      1 <0>        -0.1205
     12 C10         3.5634   -4.2307    2.5421 C.ar      1 <0>         0.1907
     13 N2          4.5891   -4.1583    1.6026 N.am      1 <0>        -0.6462
     14 C11         5.6037   -5.0446    1.6429 C.2       1 <0>         0.5288
     15 O2          5.5859   -5.9503    2.4492 O.2       1 <0>        -0.5170
     16 C12         6.7601   -4.9102    0.6860 C.3       1 <0>        -0.1283
     17 H1          7.2467   -3.9465    0.8362 H         1 <0>         0.1292
     18 C13         6.2463   -5.0047   -0.7536 C.3       1 <0>        -0.1329
     19 C14         7.4368   -4.9457   -1.7150 C.3       1 <0>        -0.1392
     20 C15         8.4169   -6.0702   -1.3741 C.3       1 <0>        -0.0205
     21 N3          8.8917   -5.9090    0.0054 N.4       1 <0>        -0.3842
     22 C16         7.7658   -6.0355    0.9386 C.3       1 <0>         0.0112
     23 C17         9.8904   -6.9445    0.3022 C.3       1 <0>         0.0956
     24 C18        11.1048   -6.7346   -0.5652 C.2       1 <0>         0.2240
     25 N4         12.1437   -6.0115   -0.2581 N.2       1 <0>        -0.4838
     26 C19        13.0403   -6.0444   -1.2602 C.2       1 <0>         0.3074
     27 N5         12.5669   -6.7993   -2.2208 N.2       1 <0>        -0.2886
     28 O3         11.3003   -7.2647   -1.7794 O.3       1 <0>        -0.0827
     29 C20        14.3476   -5.3423   -1.2755 C.ar      1 <0>        -0.0474
     30 C21        14.7393   -4.5702   -0.1836 C.ar      1 <0>        -0.0550
     31 C22        15.9558   -3.9193   -0.2027 C.ar      1 <0>        -0.0951
     32 C23        16.7864   -4.0318   -1.3043 C.ar      1 <0>        -0.0575
     33 C24        16.4017   -4.7971   -2.3916 C.ar      1 <0>        -0.0921
     34 C25        15.1901   -5.4574   -2.3794 C.ar      1 <0>        -0.0634
     35 Br1        18.4519   -3.1366   -1.3241 Br        1 <0>        -0.0209
     36 H2          4.5090    2.6116    4.4535 H         1 <0>         0.1011
     37 H3          2.8688    3.4483    4.7832 H         1 <0>         0.1081
     38 H4          1.7676    1.8299    3.4121 H         1 <0>         0.1184
     39 H5          3.5898    0.8124    1.8083 H         1 <0>         0.0795
     40 H6          4.6719    0.7421    3.2197 H         1 <0>         0.0743
     41 H7          2.3057   -0.6691    3.8412 H         1 <0>         0.4049
     42 H8          1.6475   -2.2499    4.5337 H         1 <0>         0.1334
     43 H9          0.7164   -4.4413    5.1360 H         1 <0>         0.1374
     44 H10         1.5938   -6.4904    4.0962 H         1 <0>         0.1371
     45 H11         3.4098   -6.3661    2.4469 H         1 <0>         0.1391
     46 H12         4.5733   -3.4700    0.9193 H         1 <0>         0.4231
     47 H13         5.7142   -5.9462   -0.8897 H         1 <0>         0.0942
     48 H14         5.5729   -4.1717   -0.9557 H         1 <0>         0.1033
     49 H15         7.0841   -5.0682   -2.7391 H         1 <0>         0.1235
     50 H16         7.9382   -3.9830   -1.6148 H         1 <0>         0.0935
     51 H17         7.9146   -7.0323   -1.4749 H         1 <0>         0.1425
     52 H18         9.2657   -6.0312   -2.0569 H         1 <0>         0.1292
     53 H19         8.1334   -5.9705    1.9627 H         1 <0>         0.1487
     54 H20         7.2779   -6.9986    0.7891 H         1 <0>         0.1476
     55 H21        10.1783   -6.8816    1.3516 H         1 <0>         0.1808
     56 H22         9.4654   -7.9277    0.1004 H         1 <0>         0.1728
     57 H23        14.0916   -4.4812    0.6760 H         1 <0>         0.1477
     58 H24        16.2603   -3.3206    0.6431 H         1 <0>         0.1488
     59 H25        17.0530   -4.8813   -3.2491 H         1 <0>         0.1494
     60 H26        14.8929   -6.0582   -3.2263 H         1 <0>         0.1437
     61 H27         9.3130   -4.9982    0.1107 H         1 <0>         0.4304
@<TRIPOS>BOND
     1    1    2 2
     2    1   36 1
     3    1   37 1
     4    2    3 1
     5    2   38 1
     6    3    4 1
     7    3   39 1
     8    3   40 1
     9    4    5 am
    10    4   41 1
    11    5    6 2
    12    5    7 1
    13    7   12 ar
    14    7    8 ar
    15    8    9 ar
    16    8   42 1
    17    9   10 ar
    18    9   43 1
    19   10   11 ar
    20   10   44 1
    21   11   12 ar
    22   11   45 1
    23   12   13 1
    24   13   14 am
    25   13   46 1
    26   14   15 2
    27   14   16 1
    28   16   17 1
    29   16   22 1
    30   16   18 1
    31   18   19 1
    32   18   47 1
    33   18   48 1
    34   19   20 1
    35   19   49 1
    36   19   50 1
    37   20   21 1
    38   20   51 1
    39   20   52 1
    40   21   22 1
    41   21   23 1
    42   21   61 1
    43   22   53 1
    44   22   54 1
    45   23   24 1
    46   23   55 1
    47   23   56 1
    48   24   28 1
    49   24   25 2
    50   25   26 1
    51   26   27 2
    52   26   29 1
    53   27   28 1
    54   29   34 ar
    55   29   30 ar
    56   30   31 ar
    57   30   57 1
    58   31   32 ar
    59   31   58 1
    60   32   33 ar
    61   32   35 1
    62   33   34 ar
    63   33   59 1
    64   34   60 1
@<TRIPOS>MOLECULE
ZINC51347589
   81    84     0     0     0
SMALL
USER_CHARGES

@<TRIPOS>ATOM
      1 C1          1.5774    1.5656    1.7627 C.3       1 <0>        -0.1886
      2 C2          1.8899    0.0908    1.5017 C.3       1 <0>        -0.0186
      3 N1          0.6343   -0.6548    1.3414 N.4       1 <0>        -0.3824
      4 C3         -0.0630   -0.1862    0.1364 C.3       1 <0>        -0.0153
      5 C4         -1.4403   -0.8475    0.0546 C.3       1 <0>        -0.1902
      6 C5          0.9292   -2.0880    1.2104 C.3       1 <0>        -0.0264
      7 C6          1.5399   -2.6043    2.5148 C.3       1 <0>         0.0990
      8 N2          1.7215   -4.0554    2.4281 N.am      1 <0>        -0.7323
      9 C7          2.2480   -4.7320    3.4680 C.2       1 <0>         0.5250
     10 O1          2.5714   -4.1395    4.4756 O.2       1 <0>        -0.5040
     11 C8          2.4348   -6.2247    3.3789 C.3       1 <0>         0.0618
     12 O2          3.0052   -6.7070    4.5971 O.3       1 <0>        -0.2237
     13 N3          3.2226   -8.1061    4.6170 N.2       1 <0>        -0.3524
     14 C9          3.7361   -8.6676    5.6672 C.2       1 <0>         0.1968
     15 C10         4.0973   -7.8297    6.8666 C.3       1 <0>        -0.1170
     16 C11         4.0999   -8.7036    8.1225 C.3       1 <0>        -0.1043
     17 C12         4.9952   -9.9204    7.9201 C.3       1 <0>        -0.0303
     18 C13         4.9050  -10.8495    9.1419 C.3       1 <0>        -0.0695
     19 H1          5.8300  -11.4247    9.1721 H         1 <0>         0.0861
     20 C14         4.7440  -10.0412   10.4212 C.3       1 <0>        -0.1098
     21 C15         4.7505  -10.9327   11.6713 C.3       1 <0>        -0.1044
     22 C16         4.3152  -12.3345   11.3425 C.3       1 <0>        -0.0253
     23 C17         3.2299  -12.3460   10.2480 C.3       1 <0>        -0.0736
     24 H2          2.3621  -11.7444   10.5859 H         1 <0>         0.0701
     25 C18         3.7111  -11.7813    8.9430 C.3       1 <0>        -0.0664
     26 H3          2.8903  -11.1549    8.5367 H         1 <0>         0.0628
     27 C19         4.0069  -12.8362    7.8884 C.3       1 <0>        -0.1086
     28 C20         4.7524  -12.2072    6.7089 C.3       1 <0>        -0.0909
     29 C21         4.5382  -10.7117    6.7181 C.2       1 <0>        -0.0286
     30 C22         3.9604  -10.1172    5.6855 C.2       1 <0>        -0.1418
     31 C23         2.8000  -13.8215   10.2276 C.3       1 <0>        -0.1161
     32 C24         2.8666  -14.2491   11.7172 C.3       1 <0>        -0.1471
     33 C25         3.6148  -13.1170   12.4686 C.3       1 <0>         0.2412
     34 C26         2.6568  -12.2944   13.2116 C.1       1 <0>        -0.2074
     35 C27         1.8890  -11.6354   13.8070 C.1       1 <0>        -0.1788
     36 O3          4.5924  -13.6734   13.3484 O.3       1 <0>        -0.5399
     37 C28         5.5355  -13.1785   10.9349 C.3       1 <0>        -0.1400
     38 C29         6.4495   -9.4868    7.7268 C.3       1 <0>        -0.1392
     39 H4          0.9828    1.6557    2.6717 H         1 <0>         0.0818
     40 H5          2.5090    2.1188    1.8816 H         1 <0>         0.1082
     41 H6          1.0179    1.9730    0.9206 H         1 <0>         0.0813
     42 H7          2.4846    0.0006    0.5927 H         1 <0>         0.1320
     43 H8          2.4494   -0.3166    2.3438 H         1 <0>         0.1330
     44 H9         -0.1819    0.8963    0.1832 H         1 <0>         0.1364
     45 H10         0.5196   -0.4499   -0.7462 H         1 <0>         0.1310
     46 H11        -2.0422   -0.5402    0.9098 H         1 <0>         0.0820
     47 H12        -1.9358   -0.5420   -0.8670 H         1 <0>         0.1082
     48 H13        -1.3241   -1.9312    0.0626 H         1 <0>         0.0792
     49 H14         0.0076   -2.6309    1.0008 H         1 <0>         0.1404
     50 H15         1.6346   -2.2406    0.3936 H         1 <0>         0.1392
     51 H16         2.5058   -2.1264    2.6779 H         1 <0>         0.0916
     52 H17         0.8739   -2.3705    3.3453 H         1 <0>         0.0893
     53 H18         1.4628   -4.5293    1.6222 H         1 <0>         0.4104
     54 H19         1.4689   -6.7027    3.2157 H         1 <0>         0.0915
     55 H20         3.1009   -6.4585    2.5483 H         1 <0>         0.0919
     56 H21         5.0720   -7.3692    6.7200 H         1 <0>         0.0919
     57 H22         3.3513   -7.0366    6.9845 H         1 <0>         0.0853
     58 H23         4.4648   -8.1149    8.9681 H         1 <0>         0.0808
     59 H24         3.0793   -9.0311    8.3360 H         1 <0>         0.0700
     60 H25         5.5575   -9.3140   10.5016 H         1 <0>         0.0650
     61 H26         3.7981   -9.4906   10.3871 H         1 <0>         0.0619
     62 H27         5.7760  -10.9580   12.0775 H         1 <0>         0.0635
     63 H28         4.1203  -10.4656   12.4308 H         1 <0>         0.0641
     64 H29         4.6209  -13.6262    8.3109 H         1 <0>         0.0740
     65 H30         3.0691  -13.2569    7.5272 H         1 <0>         0.0680
     66 H31         5.8149  -12.4272    6.7948 H         1 <0>         0.0837
     67 H32         4.3656  -12.6233    5.7785 H         1 <0>         0.0764
     68 H33         3.6473  -10.7128    4.8399 H         1 <0>         0.1293
     69 H34         1.7759  -13.9095    9.8540 H         1 <0>         0.0659
     70 H35         3.4701  -14.4247    9.6198 H         1 <0>         0.0790
     71 H36         1.8602  -14.3577   12.1209 H         1 <0>         0.0688
     72 H37         3.4129  -15.1860   11.8167 H         1 <0>         0.0831
     73 H38         1.2024  -11.0459   14.3395 H         1 <0>         0.2183
     74 H39         4.2183  -14.1802   14.0820 H         1 <0>         0.3784
     75 H40         6.2073  -13.2812   11.7871 H         1 <0>         0.0679
     76 H41         5.2035  -14.1655   10.6129 H         1 <0>         0.0578
     77 H42         6.0602  -12.6866   10.1158 H         1 <0>         0.0606
     78 H43         6.7862   -8.9413    8.6083 H         1 <0>         0.0651
     79 H44         7.0753  -10.3677    7.5836 H         1 <0>         0.0621
     80 H45         6.5231   -8.8425    6.8507 H         1 <0>         0.0567
     81 H46         0.0484   -0.5045    2.1490 H         1 <0>         0.4251
@<TRIPOS>BOND
     1    1    2 1
     2    1   39 1
     3    1   40 1
     4    1   41 1
     5    2    3 1
     6    2   42 1
     7    2   43 1
     8    3    4 1
     9    3    6 1
    10    3   81 1
    11    4    5 1
    12    4   44 1
    13    4   45 1
    14    5   46 1
    15    5   47 1
    16    5   48 1
    17    6    7 1
    18    6   49 1
    19    6   50 1
    20    7    8 1
    21    7   51 1
    22    7   52 1
    23    8    9 am
    24    8   53 1
    25    9   10 2
    26    9   11 1
    27   11   12 1
    28   11   54 1
    29   11   55 1
    30   12   13 1
    31   13   14 2
    32   14   30 1
    33   14   15 1
    34   15   16 1
    35   15   56 1
    36   15   57 1
    37   16   17 1
    38   16   58 1
    39   16   59 1
    40   17   29 1
    41   17   18 1
    42   17   38 1
    43   18   19 1
    44   18   25 1
    45   18   20 1
    46   20   21 1
    47   20   60 1
    48   20   61 1
    49   21   22 1
    50   21   62 1
    51   21   63 1
    52   22   33 1
    53   22   23 1
    54   22   37 1
    55   23   24 1
    56   23   25 1
    57   23   31 1
    58   25   26 1
    59   25   27 1
    60   27   28 1
    61   27   64 1
    62   27   65 1
    63   28   29 1
    64   28   66 1
    65   28   67 1
    66   29   30 2
    67   30   68 1
    68   31   32 1
    69   31   69 1
    70   31   70 1
    71   32   33 1
    72   32   71 1
    73   32   72 1
    74   33   34 1
    75   33   36 1
    76   34   35 3
    77   35   73 1
    78   36   74 1
    79   37   75 1
    80   37   76 1
    81   37   77 1
    82   38   78 1
    83   38   79 1
    84   38   80 1
@<TRIPOS>MOLECULE
ZINC63761350
   73    77     0     0     0
SMALL
USER_CHARGES

@<TRIPOS>ATOM
      1 C1         -0.0187    1.5258    0.0104 C.3       1 <0>        -0.1522
      2 C2          0.0021   -0.0041    0.0020 C.3       1 <0>        -0.0981
      3 C3          0.7421   -0.5109    1.2415 C.3       1 <0>        -0.1607
      4 C4         -1.4333   -0.5336    0.0129 C.3       1 <0>         0.1576
      5 H1         -1.4190   -1.6203    0.0965 H         1 <0>         0.1304
      6 C5         -2.1755    0.0508    1.1870 C.2       1 <0>         0.4642
      7 O1         -3.1644    0.7205    1.0040 O.2       1 <0>        -0.5042
      8 O2         -1.7380   -0.1726    2.4362 O.3       1 <0>        -0.3371
      9 C6         -2.4902    0.4119    3.5013 C.3       1 <0>         0.0281
     10 N1         -2.1054   -0.1483   -1.2305 N.am      1 <0>        -0.7126
     11 C7         -1.9698   -0.9103   -2.3339 C.2       1 <0>         0.5086
     12 O3         -1.2914   -1.9150   -2.2975 O.2       1 <0>        -0.4991
     13 C8         -2.6612   -0.5139   -3.6130 C.3       1 <0>         0.1366
     14 H2         -3.7381   -0.4786   -3.4480 H         1 <0>         0.1293
     15 C9         -2.1672    0.8655   -4.0534 C.3       1 <0>        -0.0979
     16 C10        -2.9459    1.3155   -5.2626 C.2       1 <0>         0.0633
     17 C11        -4.0414    2.1086   -5.2755 C.ar      1 <0>        -0.1613
     18 C12        -4.8073    2.7636   -4.2083 C.ar      1 <0>        -0.0155
     19 C13        -5.8841    3.5123   -4.5385 C.ar      1 <0>        -0.1469
     20 C14        -6.2863    3.6777   -5.8710 C.ar      1 <0>         0.0567
     21 C15        -5.6335    3.1075   -6.9058 C.ar      1 <0>        -0.2095
     22 C16        -4.4865    2.2993   -6.6744 C.ar      1 <0>         0.3302
     23 N2         -3.6967    1.6493   -7.4945 N.pl3     1 <0>        -0.5822
     24 C17        -2.6566    0.9770   -6.7080 C.3       1 <0>         0.0572
     25 N3         -2.3590   -1.4969   -4.6563 N.am      1 <0>        -0.7239
     26 C18        -3.0964   -2.6205   -4.7576 C.2       1 <0>         0.5328
     27 O4         -4.0102   -2.8178   -3.9850 O.2       1 <0>        -0.5139
     28 C19        -2.7855   -3.6316   -5.8309 C.3       1 <0>        -0.0662
     29 C20        -1.3549   -4.1434   -5.6504 C.3       1 <0>        -0.0975
     30 C21        -1.0393   -5.1700   -6.7401 C.3       1 <0>        -0.0854
     31 C22        -2.0172   -6.3420   -6.6353 C.3       1 <0>        -0.1134
     32 C23        -3.4477   -5.8302   -6.8158 C.3       1 <0>        -0.0876
     33 C24        -3.7634   -4.8036   -5.7261 C.3       1 <0>        -0.0888
     34 C25        -3.5847   -5.1731   -8.1906 C.3       1 <0>        -0.1118
     35 C26        -2.6067   -4.0011   -8.2954 C.3       1 <0>        -0.0833
     36 C27        -1.1762   -4.5128   -8.1150 C.3       1 <0>        -0.1107
     37 C28        -2.9224   -2.9745   -7.2058 C.3       1 <0>        -0.0981
     38 H3          1.0039    1.9031    0.0027 H         1 <0>         0.0696
     39 H4         -0.5459    1.8868   -0.8726 H         1 <0>         0.0531
     40 H5         -0.5289    1.8773    0.9072 H         1 <0>         0.0542
     41 H6          0.5123   -0.3556   -0.8948 H         1 <0>         0.0928
     42 H7          0.2319   -0.1594    2.1383 H         1 <0>         0.0786
     43 H8          0.7568   -1.6008    1.2356 H         1 <0>         0.0631
     44 H9          1.7647   -0.1336    1.2338 H         1 <0>         0.0660
     45 H10        -2.0299    0.1544    4.4552 H         1 <0>         0.1097
     46 H11        -2.5031    1.4956    3.3850 H         1 <0>         0.0643
     47 H12        -3.5114    0.0316    3.4763 H         1 <0>         0.0647
     48 H13        -2.6480    0.6552   -1.2597 H         1 <0>         0.4076
     49 H14        -2.3114    1.5792   -3.2422 H         1 <0>         0.1295
     50 H15        -1.1078    0.8092   -4.3037 H         1 <0>         0.1274
     51 H16        -4.5155    2.6491   -3.1748 H         1 <0>         0.1620
     52 H17        -6.4491    3.9952   -3.7549 H         1 <0>         0.1597
     53 H18        -7.1544    4.2859   -6.0782 H         1 <0>         0.1622
     54 H19        -5.9843    3.2658   -7.9149 H         1 <0>         0.1617
     55 H20        -1.6710    1.3469   -6.9905 H         1 <0>         0.1773
     56 H21        -2.7117   -0.1010   -6.8597 H         1 <0>         0.1674
     57 H22        -1.6281   -1.3391   -5.2743 H         1 <0>         0.4034
     58 H23        -0.6582   -3.3085   -5.7251 H         1 <0>         0.0647
     59 H24        -1.2574   -4.6116   -4.6709 H         1 <0>         0.0743
     60 H25        -0.0201   -5.5346   -6.6115 H         1 <0>         0.0788
     61 H26        -1.7923   -7.0733   -7.4116 H         1 <0>         0.0682
     62 H27        -1.9196   -6.8101   -5.6558 H         1 <0>         0.0663
     63 H28        -4.1445   -6.6652   -6.7411 H         1 <0>         0.0785
     64 H29        -3.6658   -5.2718   -4.7466 H         1 <0>         0.0731
     65 H30        -4.7825   -4.4390   -5.8547 H         1 <0>         0.0688
     66 H31        -3.3598   -5.9044   -8.9669 H         1 <0>         0.0692
     67 H32        -4.6038   -4.8085   -8.3192 H         1 <0>         0.0628
     68 H33        -2.7043   -3.5329   -9.2749 H         1 <0>         0.0746
     69 H34        -0.4795   -3.6779   -8.1896 H         1 <0>         0.0621
     70 H35        -0.9513   -5.2442   -8.8913 H         1 <0>         0.0697
     71 H36        -3.9415   -2.6099   -7.3343 H         1 <0>         0.0651
     72 H37        -2.2257   -2.1395   -7.2804 H         1 <0>         0.0558
     73 H38        -3.7833    1.6210   -8.4603 H         1 <0>         0.4567
@<TRIPOS>BOND
     1    1    2 1
     2    1   38 1
     3    1   39 1
     4    1   40 1
     5    2    3 1
     6    2    4 1
     7    2   41 1
     8    3   42 1
     9    3   43 1
    10    3   44 1
    11    4    5 1
    12    4    6 1
    13    4   10 1
    14    6    7 2
    15    6    8 1
    16    8    9 1
    17    9   45 1
    18    9   46 1
    19    9   47 1
    20   10   11 am
    21   10   48 1
    22   11   12 2
    23   11   13 1
    24   13   14 1
    25   13   15 1
    26   13   25 1
    27   15   16 1
    28   15   49 1
    29   15   50 1
    30   16   24 1
    31   16   17 2
    32   17   22 ar
    33   17   18 ar
    34   18   19 ar
    35   18   51 1
    36   19   20 ar
    37   19   52 1
    38   20   21 ar
    39   20   53 1
    40   21   22 ar
    41   21   54 1
    42   22   23 2
    43   23   24 1
    44   23   73 1
    45   24   55 1
    46   24   56 1
    47   25   26 am
    48   25   57 1
    49   26   27 2
    50   26   28 1
    51   28   33 1
    52   28   37 1
    53   28   29 1
    54   29   30 1
    55   29   58 1
    56   29   59 1
    57   30   36 1
    58   30   31 1
    59   30   60 1
    60   31   32 1
    61   31   61 1
    62   31   62 1
    63   32   33 1
    64   32   34 1
    65   32   63 1
    66   33   64 1
    67   33   65 1
    68   34   35 1
    69   34   66 1
    70   34   67 1
    71   35   36 1
    72   35   37 1
    73   35   68 1
    74   36   69 1
    75   36   70 1
    76   37   71 1
    77   37   72 1
@<TRIPOS>MOLECULE
ZINC20877175
   59    62     0     0     0
SMALL
USER_CHARGES
(1S)-2-[2-bromo-4-[[(4-fluorophenyl)methylamino]methyl]-6-methoxy-phenoxy]-1-(2,3-dihydro-1,4-benzodioxin-6-yl)ethanol
@<TRIPOS>ATOM
      1 C1         -4.3759   -4.8010    4.0520 C.3       1 <0>         0.0166
      2 O1         -4.6964   -3.7528    3.1351 O.3       1 <0>        -0.2923
      3 C2         -5.6755   -2.8853    3.5069 C.ar      1 <0>         0.1253
      4 C3         -6.3105   -3.0373    4.7294 C.ar      1 <0>        -0.1677
      5 C4         -7.3095   -2.1582    5.1037 C.ar      1 <0>        -0.1246
      6 C5         -7.6743   -1.1229    4.2633 C.ar      1 <0>        -0.0929
      7 C6         -7.0415   -0.9625    3.0439 C.ar      1 <0>        -0.0821
      8 C7         -6.0388   -1.8409    2.6628 C.ar      1 <0>         0.1293
      9 O2         -5.4156   -1.6851    1.4639 O.3       1 <0>        -0.3043
     10 C8         -4.2503   -0.8582    1.4410 C.3       1 <0>         0.0815
     11 C9         -3.6920   -0.8031    0.0176 C.3       1 <0>         0.1727
     12 H1         -3.5412   -1.8098   -0.3994 H         1 <0>         0.0743
     13 C10        -2.3965   -0.0332    0.0157 C.ar      1 <0>        -0.1316
     14 C11        -2.4153    1.3492    0.0259 C.ar      1 <0>        -0.0894
     15 C12        -1.2294    2.0588    0.0190 C.ar      1 <0>        -0.1153
     16 C13        -0.0168    1.3855    0.0097 C.ar      1 <0>         0.0615
     17 C14         0.0021   -0.0041    0.0020 C.ar      1 <0>         0.0496
     18 C15        -1.1918   -0.7102    0.0041 C.ar      1 <0>        -0.0990
     19 O3          1.1807   -0.6848   -0.0066 O.3       1 <0>        -0.3073
     20 C16         2.3470    0.0535   -0.3870 C.3       1 <0>         0.0166
     21 C17         2.3345    1.3916    0.3645 C.3       1 <0>         0.0178
     22 O4          1.1429    2.0980    0.0024 O.3       1 <0>        -0.3042
     23 O5         -4.6336   -0.1532   -0.8386 O.3       1 <0>        -0.5812
     24 Br1        -7.5434    0.4549    1.8972 Br        1 <0>         0.0094
     25 C18        -8.0021   -2.3285    6.4312 C.3       1 <0>         0.0526
     26 N1         -9.1716   -3.2018    6.2649 N.4       1 <0>        -0.5394
     27 C19        -9.8733   -3.3910    7.5415 C.3       1 <0>         0.0506
     28 C20       -11.0643   -4.2902    7.3317 C.ar      1 <0>        -0.1787
     29 C21       -12.2929   -3.7450    7.0084 C.ar      1 <0>        -0.0608
     30 C22       -13.3847   -4.5690    6.8110 C.ar      1 <0>        -0.1519
     31 C23       -13.2501   -5.9402    6.9476 C.ar      1 <0>         0.1411
     32 C24       -12.0203   -6.4847    7.2767 C.ar      1 <0>        -0.1525
     33 C25       -10.9287   -5.6591    7.4684 C.ar      1 <0>        -0.0619
     34 F1        -14.3178   -6.7464    6.7596 F         1 <0>        -0.1222
     35 H2         -3.5742   -5.4248    3.6300 H         1 <0>         0.1150
     36 H3         -5.2681   -5.4199    4.2278 H         1 <0>         0.0602
     37 H4         -4.0387   -4.3650    5.0040 H         1 <0>         0.0619
     38 H5         -6.0276   -3.8452    5.3879 H         1 <0>         0.1468
     39 H6         -8.4553   -0.4382    4.5593 H         1 <0>         0.1473
     40 H7         -4.5148    0.1573    1.7707 H         1 <0>         0.0706
     41 H8         -3.4902   -1.2769    2.1171 H         1 <0>         0.0742
     42 H9         -3.3583    1.8754    0.0361 H         1 <0>         0.1385
     43 H10        -1.2469    3.1386    0.0268 H         1 <0>         0.1386
     44 H11        -1.1798   -1.7901   -0.0036 H         1 <0>         0.1360
     45 H12         3.2470   -0.5205   -0.1216 H         1 <0>         0.1275
     46 H13         2.3315    0.2298   -1.4727 H         1 <0>         0.0813
     47 H14         2.3475    1.2036    1.4482 H         1 <0>         0.0806
     48 H15         3.2215    1.9783    0.0835 H         1 <0>         0.1284
     49 H16        -4.4053   -0.0199   -1.9064 H         1 <0>         0.4155
     50 H17        -7.3059   -2.7813    7.1525 H         1 <0>         0.1391
     51 H18        -8.3281   -1.3461    6.8034 H         1 <0>         0.1414
     52 H19        -9.8677   -2.7489    5.5436 H         1 <0>         0.4506
     53 H20        -9.1903   -3.8513    8.2706 H         1 <0>         0.1372
     54 H21       -10.2124   -2.4160    7.9215 H         1 <0>         0.1383
     55 H22       -12.3985   -2.6751    6.9059 H         1 <0>         0.1428
     56 H23       -14.3434   -4.1432    6.5544 H         1 <0>         0.1494
     57 H24       -11.9141   -7.5542    7.3831 H         1 <0>         0.1490
     58 H25        -9.9693   -6.0836    7.7247 H         1 <0>         0.1416
     59 H26        -8.8457   -4.1842    5.8927 H         1 <0>         0.4484
@<TRIPOS>BOND
     1    1    2 1
     2    1   35 1
     3    1   36 1
     4    1   37 1
     5    2    3 1
     6    3    8 ar
     7    3    4 ar
     8    4    5 ar
     9    4   38 1
    10    5    6 ar
    11    5   25 1
    12    6    7 ar
    13    6   39 1
    14    7    8 ar
    15    7   24 1
    16    8    9 1
    17    9   10 1
    18   10   11 1
    19   10   40 1
    20   10   41 1
    21   11   12 1
    22   11   13 1
    23   11   23 1
    24   13   18 ar
    25   13   14 ar
    26   14   15 ar
    27   14   42 1
    28   15   16 ar
    29   15   43 1
    30   16   22 1
    31   16   17 ar
    32   17   18 ar
    33   17   19 1
    34   18   44 1
    35   19   20 1
    36   20   21 1
    37   20   45 1
    38   20   46 1
    39   21   22 1
    40   21   47 1
    41   21   48 1
    42   23   49 1
    43   25   26 1
    44   25   50 1
    45   25   51 1
    46   26   27 1
    47   26   52 1
    48   26   59 1
    49   27   28 1
    50   27   53 1
    51   27   54 1
    52   28   33 ar
    53   28   29 ar
    54   29   30 ar
    55   29   55 1
    56   30   31 ar
    57   30   56 1
    58   31   32 ar
    59   31   34 1
    60   32   33 ar
    61   32   57 1
    62   33   58 1
@<TRIPOS>MOLECULE
ZINC35747453
   64    67     0     0     0
SMALL
USER_CHARGES

@<TRIPOS>ATOM
      1 C1         -0.0363    1.3540    0.5160 C.3       1 <0>         0.0283
      2 O1         -0.0074   -0.0623    0.3279 O.3       1 <0>        -0.3766
      3 C2         -1.2982   -0.6753    0.3293 C.3       1 <0>         0.0311
      4 C3         -1.1468   -2.1835    0.1213 C.3       1 <0>         0.0876
      5 H1         -0.5784   -2.3693   -0.7900 H         1 <0>         0.1317
      6 C4         -2.5314   -2.8228   -0.0019 C.3       1 <0>        -0.0524
      7 N1         -2.3852   -4.2537   -0.3006 N.4       1 <0>        -0.3686
      8 C5         -3.7070   -4.8944   -0.2869 C.3       1 <0>         0.0423
      9 C6         -3.5445   -6.3767   -0.0696 C.2       1 <0>         0.3567
     10 N2         -4.6265   -7.1897   -0.1791 N.am      1 <0>        -0.6232
     11 H2         -5.4903   -6.8050   -0.3955 H         1 <0>         0.4259
     12 C7         -4.5241   -8.5188    0.0063 C.2       1 <0>         0.5531
     13 O2         -5.5050   -9.2353   -0.0963 O.2       1 <0>        -0.4774
     14 C8         -3.2458   -9.0783    0.3254 C.2       1 <0>        -0.2029
     15 C9         -2.8821  -10.4689    0.5689 C.2       1 <0>        -0.0116
     16 C10        -1.5917  -10.7641    0.8571 C.2       1 <0>        -0.1632
     17 S1         -0.7858   -9.1747    0.8167 S.3       1 <0>         0.1950
     18 C11        -2.1862   -8.1610    0.4179 C.2       1 <0>         0.0677
     19 N3         -2.3644   -6.8581    0.2154 N.2       1 <0>        -0.4826
     20 C12        -3.9053  -11.5399    0.5030 C.ar      1 <0>        -0.0988
     21 C13        -5.1067  -11.4020    1.1970 C.ar      1 <0>        -0.0206
     22 C14        -6.0566  -12.3999    1.1332 C.ar      1 <0>        -0.1542
     23 C15        -5.8176  -13.5406    0.3792 C.ar      1 <0>         0.1453
     24 C16        -4.6224  -13.6813   -0.3125 C.ar      1 <0>        -0.2135
     25 C17        -3.6706  -12.6845   -0.2576 C.ar      1 <0>        -0.0563
     26 O3         -6.7558  -14.5221    0.3184 O.3       1 <0>        -0.3148
     27 C18        -6.4447  -15.6686   -0.4759 C.3       1 <0>         0.0248
     28 C19        -1.7756   -4.4172   -1.6272 C.3       1 <0>         0.0200
     29 C20        -1.5760   -5.9062   -1.9167 C.3       1 <0>        -0.1344
     30 C21        -0.9411   -6.0765   -3.2983 C.3       1 <0>        -0.1200
     31 C22        -1.8600   -5.4692   -4.3602 C.3       1 <0>        -0.1307
     32 C23        -2.0596   -3.9801   -4.0707 C.3       1 <0>        -0.1159
     33 C24        -2.6945   -3.8099   -2.6891 C.3       1 <0>        -0.1443
     34 O4         -0.4575   -2.7513    1.2368 O.3       1 <0>        -0.5402
     35 H3          0.9818    1.7431    0.5025 H         1 <0>         0.0975
     36 H4         -0.6123    1.8154   -0.2862 H         1 <0>         0.0478
     37 H5         -0.5004    1.5837    1.4751 H         1 <0>         0.0481
     38 H6         -1.7885   -0.4876    1.2845 H         1 <0>         0.0650
     39 H7         -1.9004   -0.2560   -0.4768 H         1 <0>         0.0687
     40 H8         -3.0726   -2.7010    0.9363 H         1 <0>         0.1420
     41 H9         -3.0850   -2.3385   -0.8063 H         1 <0>         0.1485
     42 H10        -4.3068   -4.4726    0.5196 H         1 <0>         0.1674
     43 H11        -4.2056   -4.7194   -1.2402 H         1 <0>         0.1670
     44 H12        -1.1558  -11.7308    1.0621 H         1 <0>         0.2067
     45 H13        -5.2931  -10.5149    1.7841 H         1 <0>         0.1219
     46 H14        -6.9873  -12.2939    1.6707 H         1 <0>         0.1330
     47 H15        -4.4392  -14.5703   -0.8977 H         1 <0>         0.1329
     48 H16        -2.7427  -12.7926   -0.7996 H         1 <0>         0.1263
     49 H17        -6.2757  -15.3608   -1.5078 H         1 <0>         0.0573
     50 H18        -5.5455  -16.1467   -0.0874 H         1 <0>         0.0584
     51 H19        -7.2757  -16.3730   -0.4384 H         1 <0>         0.1043
     52 H20        -0.8108   -3.9103   -1.6487 H         1 <0>         0.1467
     53 H21        -0.9213   -6.3389   -1.1602 H         1 <0>         0.1075
     54 H22        -2.5407   -6.4131   -1.8952 H         1 <0>         0.0720
     55 H23         0.0237   -5.5696   -3.3198 H         1 <0>         0.0766
     56 H24        -0.7988   -7.1373   -3.5046 H         1 <0>         0.0814
     57 H25        -1.4077   -5.5905   -5.3445 H         1 <0>         0.0799
     58 H26        -2.8248   -5.9760   -4.3387 H         1 <0>         0.0659
     59 H27        -1.0949   -3.4733   -4.0922 H         1 <0>         0.0778
     60 H28        -2.7143   -3.5475   -4.8272 H         1 <0>         0.0857
     61 H29        -3.6593   -4.3167   -2.6676 H         1 <0>         0.0845
     62 H30        -2.8367   -2.7491   -2.4828 H         1 <0>         0.0895
     63 H31        -0.9071   -2.6237    2.0834 H         1 <0>         0.3885
     64 H32        -1.7955   -4.6841    0.3958 H         1 <0>         0.4438
@<TRIPOS>BOND
     1    1    2 1
     2    1   35 1
     3    1   36 1
     4    1   37 1
     5    2    3 1
     6    3    4 1
     7    3   38 1
     8    3   39 1
     9    4    5 1
    10    4    6 1
    11    4   34 1
    12    6    7 1
    13    6   40 1
    14    6   41 1
    15    7    8 1
    16    7   28 1
    17    7   64 1
    18    8    9 1
    19    8   42 1
    20    8   43 1
    21    9   19 2
    22    9   10 1
    23   10   11 1
    24   10   12 am
    25   12   13 2
    26   12   14 1
    27   14   18 2
    28   14   15 1
    29   15   16 2
    30   15   20 1
    31   16   17 1
    32   16   44 1
    33   17   18 1
    34   18   19 1
    35   20   25 ar
    36   20   21 ar
    37   21   22 ar
    38   21   45 1
    39   22   23 ar
    40   22   46 1
    41   23   24 ar
    42   23   26 1
    43   24   25 ar
    44   24   47 1
    45   25   48 1
    46   26   27 1
    47   27   49 1
    48   27   50 1
    49   27   51 1
    50   28   33 1
    51   28   29 1
    52   28   52 1
    53   29   30 1
    54   29   53 1
    55   29   54 1
    56   30   31 1
    57   30   55 1
    58   30   56 1
    59   31   32 1
    60   31   57 1
    61   31   58 1
    62   32   33 1
    63   32   59 1
    64   32   60 1
    65   33   61 1
    66   33   62 1
    67   34   63 1
@<TRIPOS>MOLECULE
ZINC39421880
   61    65     0     0     0
SMALL
USER_CHARGES

@<TRIPOS>ATOM
      1 C1         -0.1056    0.8742   -0.0004 C.3       1 <0>        -0.1582
      2 C2          0.3621   -0.5812    0.0621 C.3       1 <0>        -0.0903
      3 C3          1.1849   -0.7914    1.3070 C.ar      1 <0>        -0.1437
      4 C4          2.5313   -0.6955    1.2622 C.ar      1 <0>         0.0246
      5 C5          3.3282   -0.8848    2.4026 C.ar      1 <0>        -0.1021
      6 C6          2.8038   -1.1744    3.6145 C.ar      1 <0>        -0.0639
      7 C7          1.4035   -1.2984    3.7743 C.ar      1 <0>        -0.0579
      8 C8          0.6027   -1.5814    4.8661 C.2       1 <0>        -0.0420
      9 C9         -0.8173   -1.5628    4.3439 C.3       1 <0>         0.0653
     10 N1         -0.7201   -1.2538    2.9139 N.pl3     1 <0>        -0.5432
     11 C10         0.5319   -1.0981    2.5905 C.ar      1 <0>         0.3250
     12 C11         1.0221   -1.8350    6.1892 C.2       1 <0>         0.4174
     13 O1          2.2045   -1.8176    6.4652 O.2       1 <0>        -0.3582
     14 C12         0.0027   -2.1275    7.2599 C.3       1 <0>        -0.0842
     15 H1         -0.8978   -1.5422    7.0738 H         1 <0>         0.1270
     16 C13        -0.3392   -3.5951    7.2404 C.ar      1 <0>        -0.1131
     17 C14         0.6333   -4.5352    7.5255 C.ar      1 <0>        -0.0920
     18 C15         0.3197   -5.8814    7.5077 C.ar      1 <0>        -0.1099
     19 C16        -0.9666   -6.2874    7.2052 C.ar      1 <0>        -0.0990
     20 C17        -1.9393   -5.3473    6.9210 C.ar      1 <0>        -0.1151
     21 C18        -1.6267   -4.0009    6.9430 C.ar      1 <0>        -0.1113
     22 S1          0.6857   -1.6872    8.8816 S.3       1 <0>        -0.1044
     23 C19        -0.7189   -1.8726   10.0144 C.3       1 <0>         0.1927
     24 H2         -1.2455   -2.8065    9.8180 H         1 <0>         0.0937
     25 N2         -0.2583   -1.8223   11.4268 N.3       1 <0>        -0.4709
     26 N3         -1.4652   -1.4007   12.1550 N.3       1 <0>        -0.4782
     27 C20        -2.1146   -0.4182   11.2576 C.3       1 <0>         0.2618
     28 H3         -1.8245    0.5940   11.5395 H         1 <0>         0.1176
     29 N4         -1.6418   -0.7208    9.8885 N.3       1 <0>        -0.5166
     30 C21        -0.9591    0.4389    9.2995 C.3       1 <0>         0.0111
     31 C22        -3.6128   -0.5645   11.3293 C.ar      1 <0>        -0.0567
     32 C23        -4.4056   -0.2976   10.2236 C.ar      1 <0>        -0.1413
     33 C24        -5.7761   -0.4428   10.3268 C.ar      1 <0>         0.0971
     34 N5         -6.3301   -0.8294   11.4594 N.ar      1 <0>        -0.4788
     35 C25        -5.6074   -1.0917   12.5307 C.ar      1 <0>         0.1056
     36 C26        -4.2306   -0.9747   12.5008 C.ar      1 <0>        -0.1648
     37 H4          0.7618    1.5340   -0.0225 H         1 <0>         0.0691
     38 H5         -0.7007    1.0263   -0.9009 H         1 <0>         0.0774
     39 H6         -0.7111    1.0993    0.8776 H         1 <0>         0.0501
     40 H7         -0.5053   -1.2409    0.0842 H         1 <0>         0.0777
     41 H8          0.9676   -0.8062   -0.8159 H         1 <0>         0.1035
     42 H9          3.0093   -0.4668    0.3211 H         1 <0>         0.1681
     43 H10         4.4004   -0.7960    2.3080 H         1 <0>         0.1626
     44 H11         3.4564   -1.3120    4.4639 H         1 <0>         0.1692
     45 H12        -1.2821   -2.5384    4.4862 H         1 <0>         0.1844
     46 H13        -1.3951   -0.7931    4.8556 H         1 <0>         0.1852
     47 H14         1.6383   -4.2179    7.7619 H         1 <0>         0.1341
     48 H15         1.0797   -6.6159    7.7298 H         1 <0>         0.1332
     49 H16        -1.2114   -7.3392    7.1906 H         1 <0>         0.1315
     50 H17        -2.9442   -5.6646    6.6843 H         1 <0>         0.1310
     51 H18        -2.3876   -3.2663    6.7246 H         1 <0>         0.1253
     52 H19         0.0533   -2.7301   11.7381 H         1 <0>         0.3610
     53 H20        -2.0735   -2.1860   12.3320 H         1 <0>         0.3284
     54 H21        -0.6894    0.2161    8.2672 H         1 <0>         0.0717
     55 H22        -1.6238    1.3024    9.3231 H         1 <0>         0.0776
     56 H23        -0.0575    0.6588    9.8713 H         1 <0>         0.0600
     57 H24        -3.9579    0.0200    9.2935 H         1 <0>         0.1372
     58 H25        -6.4007   -0.2369    9.4701 H         1 <0>         0.1563
     59 H26        -6.0967   -1.4057   13.4409 H         1 <0>         0.1609
     60 H27        -3.6438   -1.1958   13.3801 H         1 <0>         0.1418
     61 H28        -1.4710   -1.1736    2.3050 H         1 <0>         0.4596
@<TRIPOS>BOND
     1    1    2 1
     2    1   37 1
     3    1   38 1
     4    1   39 1
     5    2    3 1
     6    2   40 1
     7    2   41 1
     8    3   11 ar
     9    3    4 ar
    10    4    5 ar
    11    4   42 1
    12    5    6 ar
    13    5   43 1
    14    6    7 ar
    15    6   44 1
    16    7   11 ar
    17    7    8 2
    18    8    9 1
    19    8   12 1
    20    9   10 1
    21    9   45 1
    22    9   46 1
    23   10   11 2
    24   10   61 1
    25   12   13 2
    26   12   14 1
    27   14   15 1
    28   14   16 1
    29   14   22 1
    30   16   21 ar
    31   16   17 ar
    32   17   18 ar
    33   17   47 1
    34   18   19 ar
    35   18   48 1
    36   19   20 ar
    37   19   49 1
    38   20   21 ar
    39   20   50 1
    40   21   51 1
    41   22   23 1
    42   23   24 1
    43   23   29 1
    44   23   25 1
    45   25   26 1
    46   25   52 1
    47   26   27 1
    48   26   53 1
    49   27   28 1
    50   27   29 1
    51   27   31 1
    52   29   30 1
    53   30   54 1
    54   30   55 1
    55   30   56 1
    56   31   36 ar
    57   31   32 ar
    58   32   33 ar
    59   32   57 1
    60   33   34 ar
    61   33   58 1
    62   34   35 ar
    63   35   36 ar
    64   35   59 1
    65   36   60 1
@<TRIPOS>MOLECULE
ZINC51336610
   79    82     0     0     0
SMALL
USER_CHARGES

@<TRIPOS>ATOM
      1 C1          0.1841    0.9031    0.1327 C.3       1 <0>        -0.1875
      2 C2          0.0461   -0.6062    0.3422 C.3       1 <0>        -0.0193
      3 N1         -1.3696   -0.9461    0.5374 N.4       1 <0>        -0.3824
      4 C3         -2.1142   -0.6707   -0.6986 C.3       1 <0>        -0.0141
      5 C4         -3.6088   -0.8870   -0.4525 C.3       1 <0>        -0.1895
      6 C5         -1.4893   -2.3710    0.8740 C.3       1 <0>        -0.0259
      7 C6         -0.8199   -2.6339    2.2245 C.3       1 <0>         0.0982
      8 N2         -0.9392   -4.0550    2.5602 N.am      1 <0>        -0.7322
      9 C7         -0.4189   -4.5211    3.7128 C.2       1 <0>         0.5250
     10 O1          0.1481   -3.7642    4.4720 O.2       1 <0>        -0.5038
     11 C8         -0.5417   -5.9829    4.0581 C.3       1 <0>         0.0618
     12 O2          0.0835   -6.2285    5.3194 O.3       1 <0>        -0.2237
     13 N3          0.0236   -7.5797    5.7385 N.2       1 <0>        -0.3523
     14 C9          0.5550   -7.9325    6.8671 C.2       1 <0>         0.1967
     15 C10         1.2380   -6.9055    7.7354 C.3       1 <0>        -0.1174
     16 C11         1.1778   -7.3587    9.1963 C.3       1 <0>        -0.1035
     17 C12         1.7694   -8.7560    9.3390 C.3       1 <0>        -0.0301
     18 C13         1.5967   -9.2592   10.7802 C.3       1 <0>        -0.0682
     19 H1          2.3752  -10.0011   10.9581 H         1 <0>         0.0820
     20 C14         1.7252   -8.1154   11.7775 C.3       1 <0>        -0.1084
     21 C15         1.6776   -8.6158   13.2261 C.3       1 <0>        -0.1038
     22 C16         0.9203   -9.9170   13.3244 C.3       1 <0>        -0.0440
     23 C17        -0.2461   -9.9540   12.3171 C.3       1 <0>        -0.0703
     24 H2         -0.9033   -9.0780   12.5011 H         1 <0>         0.0752
     25 C18         0.2192   -9.9127   10.8926 C.3       1 <0>        -0.0687
     26 H3         -0.4843   -9.2595   10.3354 H         1 <0>         0.0608
     27 C19         0.1965  -11.2632   10.1938 C.3       1 <0>        -0.1076
     28 C20         0.9507  -11.1751    8.8622 C.3       1 <0>        -0.0912
     29 C21         1.0442   -9.7275    8.4380 C.2       1 <0>        -0.0285
     30 C22         0.4930   -9.3324    7.3013 C.2       1 <0>        -0.1426
     31 C23        -1.0138  -11.2114   12.7540 C.3       1 <0>        -0.1163
     32 C24        -0.9401  -11.1508   14.3037 C.3       1 <0>        -0.1580
     33 C25         0.1563  -10.1127   14.6520 C.3       1 <0>         0.1011
     34 H4          0.8247  -10.5005   15.4122 H         1 <0>         0.0585
     35 O3         -0.4387   -8.8850   15.0635 O.3       1 <0>        -0.5596
     36 C26         1.8641  -11.1121   13.1730 C.3       1 <0>        -0.1480
     37 C27         3.2596   -8.7446    8.9879 C.3       1 <0>        -0.1389
     38 H5          1.2404    1.1703    0.1001 H         1 <0>         0.1079
     39 H6         -0.2910    1.1844   -0.8071 H         1 <0>         0.0816
     40 H7         -0.2987    1.4298    0.9558 H         1 <0>         0.0810
     41 H8          0.4284   -1.1310   -0.5333 H         1 <0>         0.1321
     42 H9          0.6161   -0.9045    1.2221 H         1 <0>         0.1330
     43 H10        -1.9420    0.3612   -1.0043 H         1 <0>         0.1355
     44 H11        -1.7743   -1.3443   -1.4852 H         1 <0>         0.1311
     45 H12        -3.7955   -1.9427   -0.2556 H         1 <0>         0.0802
     46 H13        -3.9248   -0.2956    0.4068 H         1 <0>         0.0808
     47 H14        -4.1707   -0.5767   -1.3335 H         1 <0>         0.1079
     48 H15        -2.5431   -2.6435    0.9316 H         1 <0>         0.1406
     49 H16        -1.0011   -2.9684    0.1041 H         1 <0>         0.1384
     50 H17         0.2339   -2.3614    2.1669 H         1 <0>         0.0906
     51 H18        -1.3081   -2.0365    2.9944 H         1 <0>         0.0904
     52 H19        -1.3927   -4.6604    1.9529 H         1 <0>         0.4104
     53 H20        -1.5955   -6.2554    4.1157 H         1 <0>         0.0916
     54 H21        -0.0534   -6.5803    3.2881 H         1 <0>         0.0916
     55 H22         2.2727   -6.7837    7.4180 H         1 <0>         0.0918
     56 H23         0.7208   -5.9483    7.6325 H         1 <0>         0.0860
     57 H24         1.7407   -6.6552    9.8138 H         1 <0>         0.0808
     58 H25         0.1360   -7.3633    9.5284 H         1 <0>         0.0703
     59 H26         2.6677   -7.5865   11.6108 H         1 <0>         0.0627
     60 H27         0.9036   -7.4071   11.6252 H         1 <0>         0.0618
     61 H28         2.7025   -8.7616   13.5932 H         1 <0>         0.0565
     62 H29         1.2057   -7.8523   13.8567 H         1 <0>         0.0764
     63 H30         0.6730  -12.0176   10.8154 H         1 <0>         0.0713
     64 H31        -0.8317  -11.5538    9.9971 H         1 <0>         0.0668
     65 H32         1.9505  -11.5826    8.9896 H         1 <0>         0.0824
     66 H33         0.4100  -11.7442    8.1062 H         1 <0>         0.0763
     67 H34        -0.0137  -10.0600    6.6816 H         1 <0>         0.1289
     68 H35        -2.0527  -11.1529   12.4205 H         1 <0>         0.0622
     69 H36        -0.5469  -12.1167   12.3766 H         1 <0>         0.0723
     70 H37        -1.9010  -10.8319   14.7092 H         1 <0>         0.0694
     71 H38        -0.6727  -12.1283   14.7041 H         1 <0>         0.0686
     72 H39        -0.9328   -8.9459   15.8925 H         1 <0>         0.3768
     73 H40         2.5542  -11.1392   14.0163 H         1 <0>         0.0558
     74 H41         1.2825  -12.0337   13.1497 H         1 <0>         0.0598
     75 H42         2.4279  -11.0147   12.2452 H         1 <0>         0.0667
     76 H43         3.7860   -8.0665    9.6597 H         1 <0>         0.0650
     77 H44         3.6659   -9.7503    9.0951 H         1 <0>         0.0614
     78 H45         3.3879   -8.4087    7.9589 H         1 <0>         0.0566
     79 H46        -1.7484   -0.3899    1.2893 H         1 <0>         0.4251
@<TRIPOS>BOND
     1    1    2 1
     2    1   38 1
     3    1   39 1
     4    1   40 1
     5    2    3 1
     6    2   41 1
     7    2   42 1
     8    3    4 1
     9    3    6 1
    10    3   79 1
    11    4    5 1
    12    4   43 1
    13    4   44 1
    14    5   45 1
    15    5   46 1
    16    5   47 1
    17    6    7 1
    18    6   48 1
    19    6   49 1
    20    7    8 1
    21    7   50 1
    22    7   51 1
    23    8    9 am
    24    8   52 1
    25    9   10 2
    26    9   11 1
    27   11   12 1
    28   11   53 1
    29   11   54 1
    30   12   13 1
    31   13   14 2
    32   14   30 1
    33   14   15 1
    34   15   16 1
    35   15   55 1
    36   15   56 1
    37   16   17 1
    38   16   57 1
    39   16   58 1
    40   17   29 1
    41   17   18 1
    42   17   37 1
    43   18   19 1
    44   18   25 1
    45   18   20 1
    46   20   21 1
    47   20   59 1
    48   20   60 1
    49   21   22 1
    50   21   61 1
    51   21   62 1
    52   22   33 1
    53   22   23 1
    54   22   36 1
    55   23   24 1
    56   23   25 1
    57   23   31 1
    58   25   26 1
    59   25   27 1
    60   27   28 1
    61   27   63 1
    62   27   64 1
    63   28   29 1
    64   28   65 1
    65   28   66 1
    66   29   30 2
    67   30   67 1
    68   31   32 1
    69   31   68 1
    70   31   69 1
    71   32   33 1
    72   32   70 1
    73   32   71 1
    74   33   34 1
    75   33   35 1
    76   35   72 1
    77   36   73 1
    78   36   74 1
    79   36   75 1
    80   37   76 1
    81   37   77 1
    82   37   78 1
@<TRIPOS>MOLECULE
ZINC64395755
   59    62     0     0     0
SMALL
USER_CHARGES

@<TRIPOS>ATOM
      1 C1         -2.4444    0.9226    0.2485 C.3       1 <0>        -0.1212
      2 C2         -1.7341   -0.4041    0.1683 C.ar      1 <0>        -0.1298
      3 C3         -1.5833   -1.0223   -1.0759 C.ar      1 <0>         0.0591
      4 C4         -0.9547   -2.2150   -1.2112 C.ar      1 <0>        -0.2046
      5 C5         -0.4279   -2.8692   -0.0672 C.ar      1 <0>         0.3339
      6 N1          0.2138   -4.0125    0.0654 N.pl3     1 <0>        -0.5872
      7 C6          0.5377   -4.2190    1.4806 C.3       1 <0>         0.0960
      8 H1          1.6178   -4.2815    1.6132 H         1 <0>         0.1936
      9 C7         -0.0083   -3.0138    2.2135 C.2       1 <0>         0.2952
     10 C8         -0.5883   -2.2145    1.2423 C.ar      1 <0>        -0.1784
     11 C9         -1.2522   -0.9662    1.3044 C.ar      1 <0>         0.0059
     12 N2          0.0562   -2.7665    3.5499 N.am      1 <0>        -0.6231
     13 C10         0.1426   -1.4980    3.9971 C.2       1 <0>         0.5646
     14 O1          0.1264   -0.5732    3.2086 O.2       1 <0>        -0.4596
     15 C11         0.2567   -1.2318    5.4446 C.ar      1 <0>        -0.1703
     16 C12         0.2813   -2.2931    6.3528 C.ar      1 <0>        -0.0513
     17 C13         0.3886   -2.0388    7.7031 C.ar      1 <0>        -0.1590
     18 C14         0.4715   -0.7324    8.1608 C.ar      1 <0>         0.1566
     19 C15         0.4475    0.3249    7.2639 C.ar      1 <0>        -0.1569
     20 C16         0.3464    0.0820    5.9110 C.ar      1 <0>        -0.0094
     21 F1          0.5756   -0.4888    9.4856 F         1 <0>        -0.1193
     22 C17        -0.1203   -5.4773    1.9853 C.2       1 <0>         0.5115
     23 O2         -1.0488   -5.9629    1.3747 O.2       1 <0>        -0.4819
     24 N3          0.3231   -6.0629    3.1153 N.am      1 <0>        -0.7051
     25 C18        -0.3166   -7.2861    3.6061 C.3       1 <0>         0.1719
     26 C19         0.3620   -7.7335    4.8751 C.ar      1 <0>        -0.1164
     27 C20         1.3023   -8.7449    4.8360 C.ar      1 <0>        -0.0923
     28 C21         1.9271   -9.1562    6.0038 C.ar      1 <0>         0.1004
     29 C22         1.6078   -8.5522    7.2110 C.ar      1 <0>        -0.1514
     30 C23         0.6678   -7.5412    7.2501 C.ar      1 <0>        -0.1637
     31 C24         0.0467   -7.1261    6.0812 C.ar      1 <0>         0.1040
     32 O3         -0.8748   -6.1268    6.1188 O.3       1 <0>        -0.3190
     33 C25        -1.1506   -5.5463    7.3951 C.3       1 <0>         0.0178
     34 O4          2.8523  -10.1520    5.9654 O.3       1 <0>        -0.3137
     35 C26         3.4559  -10.5249    7.2058 C.3       1 <0>         0.0245
     36 H2         -1.7213    1.7295    0.1295 H         1 <0>         0.0839
     37 H3         -3.1907    0.9837   -0.5435 H         1 <0>         0.0791
     38 H4         -2.9348    1.0141    1.2177 H         1 <0>         0.0763
     39 H5         -1.9795   -0.5356   -1.9548 H         1 <0>         0.1604
     40 H6         -0.8552   -2.6669   -2.1870 H         1 <0>         0.1632
     41 H7         -1.3782   -0.4654    2.2530 H         1 <0>         0.1681
     42 H8          0.0400   -3.5031    4.1808 H         1 <0>         0.4348
     43 H9          0.2161   -3.3109    5.9975 H         1 <0>         0.1336
     44 H10         0.4077   -2.8584    8.4061 H         1 <0>         0.1504
     45 H11         0.5121    1.3403    7.6259 H         1 <0>         0.1560
     46 H12         0.3321    0.9061    5.2130 H         1 <0>         0.1553
     47 H13         1.0657   -5.6745    3.6037 H         1 <0>         0.4050
     48 H14        -1.3698   -7.0899    3.8069 H         1 <0>         0.0961
     49 H15        -0.2301   -8.0688    2.8524 H         1 <0>         0.0926
     50 H16         1.5506   -9.2154    3.8962 H         1 <0>         0.1434
     51 H17         2.0941   -8.8728    8.1205 H         1 <0>         0.1379
     52 H18         0.4187   -7.0714    8.1901 H         1 <0>         0.1374
     53 H19        -0.2360   -5.1169    7.8042 H         1 <0>         0.0570
     54 H20        -1.9012   -4.7638    7.2839 H         1 <0>         0.1039
     55 H21        -1.5248   -6.3153    8.0709 H         1 <0>         0.0636
     56 H22         3.9699   -9.6639    7.6331 H         1 <0>         0.0575
     57 H23         2.6853  -10.8676    7.8964 H         1 <0>         0.0587
     58 H24         4.1730  -11.3277    7.0341 H         1 <0>         0.1065
     59 H25         0.4361   -4.6202   -0.6572 H         1 <0>         0.4585
@<TRIPOS>BOND
     1    1    2 1
     2    1   36 1
     3    1   37 1
     4    1   38 1
     5    2   11 ar
     6    2    3 ar
     7    3    4 ar
     8    3   39 1
     9    4    5 ar
    10    4   40 1
    11    5   10 ar
    12    5    6 2
    13    6    7 1
    14    6   59 1
    15    7    8 1
    16    7    9 1
    17    7   22 1
    18    9   10 2
    19    9   12 1
    20   10   11 ar
    21   11   41 1
    22   12   13 am
    23   12   42 1
    24   13   14 2
    25   13   15 1
    26   15   20 ar
    27   15   16 ar
    28   16   17 ar
    29   16   43 1
    30   17   18 ar
    31   17   44 1
    32   18   19 ar
    33   18   21 1
    34   19   20 ar
    35   19   45 1
    36   20   46 1
    37   22   23 2
    38   22   24 am
    39   24   25 1
    40   24   47 1
    41   25   26 1
    42   25   48 1
    43   25   49 1
    44   26   31 ar
    45   26   27 ar
    46   27   28 ar
    47   27   50 1
    48   28   29 ar
    49   28   34 1
    50   29   30 ar
    51   29   51 1
    52   30   31 ar
    53   30   52 1
    54   31   32 1
    55   32   33 1
    56   33   53 1
    57   33   54 1
    58   33   55 1
    59   34   35 1
    60   35   56 1
    61   35   57 1
    62   35   58 1
@<TRIPOS>MOLECULE
ZINC19950813
   34    35     0     0     0
SMALL
USER_CHARGES
4-[[(1R,2S)-2-methylcyclohexyl]amino]benzonitrile
@<TRIPOS>ATOM
      1 C1         -0.7587    2.0326   -1.2291 C.3       1 <0>        -0.1490
      2 C2         -0.0187    1.5258    0.0104 C.3       1 <0>        -0.0968
      3 H1         -0.5336    1.8807    0.9153 H         1 <0>         0.0838
      4 C3          0.0021   -0.0041    0.0020 C.3       1 <0>        -0.1141
      5 C4          0.7421   -0.5109    1.2415 C.3       1 <0>        -0.1231
      6 C5          2.1775    0.0187    1.2307 C.3       1 <0>        -0.1165
      7 C6          2.1567    1.5485    1.2391 C.3       1 <0>        -0.1369
      8 C7          1.4167    2.0553   -0.0004 C.3       1 <0>         0.1550
      9 H2          1.4238    3.1548   -0.0331 H         1 <0>         0.0818
     10 N1          2.1024    1.5829   -1.2058 N.pl3     1 <0>        -0.7369
     11 C8          3.1793    2.2994   -1.7198 C.ar      1 <0>         0.2580
     12 C9          3.5998    3.4675   -1.0908 C.ar      1 <0>        -0.2095
     13 C10         4.6675    4.1759   -1.5937 C.ar      1 <0>        -0.0161
     14 C11         5.3233    3.7262   -2.7436 C.ar      1 <0>        -0.1040
     15 C12         4.8950    2.5552   -3.3760 C.ar      1 <0>        -0.0164
     16 C13         3.8296    1.8491   -2.8650 C.ar      1 <0>        -0.2047
     17 C14         6.4316    4.4630   -3.2722 C.1       1 <0>         0.2604
     18 N2          7.3108    5.0476   -3.6915 N.1       1 <0>        -0.4363
     19 H3         -1.7907    1.6519   -1.2212 H         1 <0>         0.0567
     20 H4         -0.2438    1.6778   -2.1341 H         1 <0>         0.0576
     21 H5         -0.7736    3.1325   -1.2231 H         1 <0>         0.0560
     22 H6         -1.0299   -0.3849    0.0098 H         1 <0>         0.0669
     23 H7          0.5170   -0.3589   -0.9030 H         1 <0>         0.0601
     24 H8          0.2272   -0.1562    2.1465 H         1 <0>         0.0632
     25 H9          0.7570   -1.6108    1.2355 H         1 <0>         0.0629
     26 H10         2.7095   -0.3457    2.1219 H         1 <0>         0.0611
     27 H11         2.6924   -0.3361    0.3257 H         1 <0>         0.0640
     28 H12         1.6418    1.9032    2.1441 H         1 <0>         0.0707
     29 H13         3.1887    1.9293    1.2313 H         1 <0>         0.0679
     30 H14         1.7662    0.6620   -1.7046 H         1 <0>         0.4185
     31 H15         3.0901    3.8165   -0.2049 H         1 <0>         0.1297
     32 H16         4.9961    5.0799   -1.1025 H         1 <0>         0.1286
     33 H17         5.3992    2.2052   -4.2647 H         1 <0>         0.1291
     34 H18         3.4982    0.9444   -3.3530 H         1 <0>         0.1283
@<TRIPOS>BOND
     1    1    2 1
     2    1   19 1
     3    1   20 1
     4    1   21 1
     5    2    3 1
     6    2    8 1
     7    2    4 1
     8    4    5 1
     9    4   22 1
    10    4   23 1
    11    5    6 1
    12    5   24 1
    13    5   25 1
    14    6    7 1
    15    6   26 1
    16    6   27 1
    17    7    8 1
    18    7   28 1
    19    7   29 1
    20    8    9 1
    21    8   10 1
    22   10   11 1
    23   10   30 1
    24   11   16 ar
    25   11   12 ar
    26   12   13 ar
    27   12   31 1
    28   13   14 ar
    29   13   32 1
    30   14   15 ar
    31   14   17 1
    32   15   16 ar
    33   15   33 1
    34   16   34 1
    35   17   18 3
@<TRIPOS>MOLECULE
ZINC36952047
   36    38     0     0     0
SMALL
USER_CHARGES

@<TRIPOS>ATOM
      1 C1         -0.0184    1.5028    0.0103 C.3       1 <0>        -0.0764
      2 C2          0.0021   -0.0041    0.0020 C.2       1 <0>        -0.0071
      3 C3         -1.0783   -0.8055    0.0027 C.2       1 <0>        -0.2124
      4 C4         -0.6011   -2.1363   -0.0068 C.2       1 <0>        -0.1902
      5 C5          0.7423   -2.0686   -0.0126 C.2       1 <0>        -0.0281
      6 O1          1.1020   -0.7746   -0.0131 O.3       1 <0>        -0.1718
      7 C6          1.6840   -3.2450   -0.0226 C.3       1 <0>         0.2368
      8 H1          1.1555   -4.1305   -0.3760 H         1 <0>         0.1062
      9 C7          2.2048   -3.4935    1.3944 C.3       1 <0>        -0.1701
     10 N1          2.8111   -2.9608   -0.9143 N.pl3     1 <0>        -0.7419
     11 C8          3.5182   -4.0113   -1.5023 C.ar      1 <0>         0.2225
     12 C9          3.1404   -5.3339   -1.2395 C.ar      1 <0>        -0.1739
     13 C10         3.8106   -6.3758   -1.7982 C.ar      1 <0>        -0.0594
     14 C11         4.8994   -6.1311   -2.6535 C.ar      1 <0>        -0.0985
     15 C12         5.6105   -7.1889   -3.2456 C.ar      1 <0>        -0.0888
     16 C13         6.6596   -6.9183   -4.0693 C.ar      1 <0>        -0.1400
     17 C14         7.0423   -5.6051   -4.3366 C.ar      1 <0>        -0.1027
     18 C15         6.3780   -4.5553   -3.7812 C.ar      1 <0>        -0.1254
     19 C16         5.2886   -4.7955   -2.9254 C.ar      1 <0>         0.0011
     20 C17         4.5768   -3.7361   -2.3395 C.ar      1 <0>        -0.2060
     21 H2          1.0042    1.8801    0.0026 H         1 <0>         0.0761
     22 H3         -0.5455    1.8639   -0.8728 H         1 <0>         0.0870
     23 H4         -0.5286    1.8543    0.9071 H         1 <0>         0.0872
     24 H5         -2.1119   -0.4924    0.0097 H         1 <0>         0.1503
     25 H6         -1.2002   -3.0349   -0.0086 H         1 <0>         0.1502
     26 H7          1.3662   -3.7050    2.0578 H         1 <0>         0.0707
     27 H8          2.8859   -4.3445    1.3872 H         1 <0>         0.0714
     28 H9          2.7333   -2.6081    1.7478 H         1 <0>         0.0640
     29 H10         3.0662   -2.0428   -1.0961 H         1 <0>         0.4050
     30 H11         2.3049   -5.5286   -0.5834 H         1 <0>         0.1244
     31 H12         3.5076   -7.3903   -1.5852 H         1 <0>         0.1289
     32 H13         5.3259   -8.2117   -3.0477 H         1 <0>         0.1238
     33 H14         7.2040   -7.7336   -4.5224 H         1 <0>         0.1200
     34 H15         7.8786   -5.4179   -4.9939 H         1 <0>         0.1204
     35 H16         6.6859   -3.5428   -3.9966 H         1 <0>         0.1234
     36 H17         4.8596   -2.7134   -2.5410 H         1 <0>         0.1233
@<TRIPOS>BOND
     1    1    2 1
     2    1   21 1
     3    1   22 1
     4    1   23 1
     5    2    6 1
     6    2    3 2
     7    3    4 1
     8    3   24 1
     9    4    5 2
    10    4   25 1
    11    5    6 1
    12    5    7 1
    13    7    8 1
    14    7    9 1
    15    7   10 1
    16    9   26 1
    17    9   27 1
    18    9   28 1
    19   10   11 1
    20   10   29 1
    21   11   20 ar
    22   11   12 ar
    23   12   13 ar
    24   12   30 1
    25   13   14 ar
    26   13   31 1
    27   14   19 ar
    28   14   15 ar
    29   15   16 ar
    30   15   32 1
    31   16   17 ar
    32   16   33 1
    33   17   18 ar
    34   17   34 1
    35   18   19 ar
    36   18   35 1
    37   19   20 ar
    38   20   36 1
@<TRIPOS>MOLECULE
ZINC04076195
   42    44     0     0     0
SMALL
USER_CHARGES

@<TRIPOS>ATOM
      1 C1          2.1467    1.4527   -0.5121 C.3       1 <0>        -0.1859
      2 C2          2.1462    0.0533   -1.1306 C.3       1 <0>        -0.1094
      3 C3          0.7211   -0.5036   -1.1311 C.3       1 <0>         0.1452
      4 C4         -0.0086   -0.0385    0.1306 C.3       1 <0>        -0.1521
      5 C5          0.8021   -0.4380    1.3652 C.3       1 <0>        -0.1581
      6 C6         -0.0241    0.0034   -2.3674 C.3       1 <0>        -0.0738
      7 C7         -1.5138   -0.3183   -2.2325 C.3       1 <0>        -0.1076
      8 C8         -2.2591    0.1886   -3.4688 C.3       1 <0>        -0.0849
      9 C9         -1.7004   -0.4963   -4.7177 C.3       1 <0>        -0.1082
     10 C10        -0.2107   -0.1746   -4.8526 C.3       1 <0>        -0.0875
     11 C11         0.5345   -0.6816   -3.6163 C.3       1 <0>        -0.0962
     12 C12        -0.0250    1.3392   -4.9749 C.3       1 <0>        -0.1085
     13 C13        -0.5836    2.0242   -3.7261 C.3       1 <0>        -0.0881
     14 C14        -2.0733    1.7024   -3.5912 C.3       1 <0>        -0.1083
     15 C15         0.1616    1.5172   -2.4898 C.3       1 <0>        -0.1092
     16 O1          0.7678   -1.9316   -1.1554 O.3       1 <0>        -0.5548
     17 H1          1.6288    2.1440   -1.1769 H         1 <0>         0.0745
     18 H2          1.6371    1.4244    0.4511 H         1 <0>         0.0721
     19 H3          3.1744    1.7867   -0.3697 H         1 <0>         0.0541
     20 H4          2.5150    0.1087   -2.1549 H         1 <0>         0.0684
     21 H5          2.7923   -0.6022   -0.5467 H         1 <0>         0.0700
     22 H6         -0.1225    1.0453    0.1059 H         1 <0>         0.0755
     23 H7         -0.9921   -0.5063    0.1748 H         1 <0>         0.0644
     24 H8          1.7856    0.0298    1.3210 H         1 <0>         0.0643
     25 H9          0.2822   -0.1066    2.2641 H         1 <0>         0.0503
     26 H10         0.9160   -1.5217    1.3900 H         1 <0>         0.0588
     27 H11        -1.6462   -1.3968   -2.1454 H         1 <0>         0.0588
     28 H12        -1.9118    0.1697   -1.3428 H         1 <0>         0.0664
     29 H13        -3.3204   -0.0406   -3.3727 H         1 <0>         0.0680
     30 H14        -1.8327   -1.5748   -4.6305 H         1 <0>         0.0604
     31 H15        -2.2313   -0.1352   -5.5984 H         1 <0>         0.0603
     32 H16         0.1873   -0.6626   -5.7423 H         1 <0>         0.0680
     33 H17         1.5958   -0.4523   -3.7124 H         1 <0>         0.0620
     34 H18         0.4022   -1.7600   -3.5291 H         1 <0>         0.0670
     35 H19         1.0363    1.5684   -5.0710 H         1 <0>         0.0605
     36 H20        -0.5559    1.7003   -5.8557 H         1 <0>         0.0602
     37 H21        -0.4513    3.1026   -3.8133 H         1 <0>         0.0687
     38 H22        -2.6043    2.0636   -4.4720 H         1 <0>         0.0607
     39 H23        -2.4713    2.1904   -2.7015 H         1 <0>         0.0602
     40 H24        -0.2364    2.0052   -1.6001 H         1 <0>         0.0648
     41 H25         1.2229    1.7464   -2.5859 H         1 <0>         0.0774
     42 H26        -0.1023   -2.3536   -1.1570 H         1 <0>         0.3711
@<TRIPOS>BOND
     1    1    2 1
     2    1   17 1
     3    1   18 1
     4    1   19 1
     5    2    3 1
     6    2   20 1
     7    2   21 1
     8    3    4 1
     9    3    6 1
    10    3   16 1
    11    4    5 1
    12    4   22 1
    13    4   23 1
    14    5   24 1
    15    5   25 1
    16    5   26 1
    17    6   11 1
    18    6   15 1
    19    6    7 1
    20    7    8 1
    21    7   27 1
    22    7   28 1
    23    8   14 1
    24    8    9 1
    25    8   29 1
    26    9   10 1
    27    9   30 1
    28    9   31 1
    29   10   11 1
    30   10   12 1
    31   10   32 1
    32   11   33 1
    33   11   34 1
    34   12   13 1
    35   12   35 1
    36   12   36 1
    37   13   14 1
    38   13   15 1
    39   13   37 1
    40   14   38 1
    41   14   39 1
    42   15   40 1
    43   15   41 1
    44   16   42 1
@<TRIPOS>MOLECULE
ZINC43660672
   38    39     0     0     0
SMALL
USER_CHARGES

@<TRIPOS>ATOM
      1 C1         -0.0187    1.5258    0.0104 C.3       1 <0>        -0.1549
      2 C2          0.0021   -0.0041    0.0020 C.3       1 <0>        -0.1194
      3 C3         -1.4333   -0.5336    0.0129 C.3       1 <0>        -0.0864
      4 H1         -1.9862   -0.1019   -0.8214 H         1 <0>         0.0663
      5 C4         -2.1103   -0.1453    1.3289 C.3       1 <0>        -0.1105
      6 C5         -3.5456   -0.6748    1.3397 C.3       1 <0>        -0.1540
      7 C6         -3.5280   -2.1989    1.2056 C.3       1 <0>         0.1079
      8 H2         -4.5506   -2.5761    1.2134 H         1 <0>         0.0564
      9 C7         -2.8510   -2.5872   -0.1103 C.3       1 <0>        -0.0708
     10 H3         -3.4039   -2.1555   -0.9446 H         1 <0>         0.0796
     11 C8         -1.4157   -2.0577   -0.1212 C.3       1 <0>        -0.1063
     12 C9         -2.8334   -4.1113   -0.2444 C.3       1 <0>        -0.0774
     13 C10        -4.2467   -4.6220   -0.3572 C.ar      1 <0>        -0.0735
     14 C11        -4.9536   -4.9563    0.7828 C.ar      1 <0>        -0.1030
     15 C12        -6.2498   -5.4248    0.6800 C.ar      1 <0>        -0.1102
     16 C13        -6.8399   -5.5592   -0.5641 C.ar      1 <0>        -0.0402
     17 C14        -6.1320   -5.2244   -1.7047 C.ar      1 <0>        -0.1086
     18 C15        -4.8377   -4.7507   -1.6003 C.ar      1 <0>        -0.1072
     19 Cl1        -8.4678   -6.1481   -0.6940 Cl        1 <0>        -0.0720
     20 O1         -2.8032   -2.7649    2.2994 O.3       1 <0>        -0.5597
     21 H4          1.0039    1.9031    0.0027 H         1 <0>         0.0527
     22 H5         -0.5459    1.8868   -0.8726 H         1 <0>         0.0525
     23 H6         -0.5289    1.8773    0.9072 H         1 <0>         0.0556
     24 H7          0.5123   -0.3556   -0.8948 H         1 <0>         0.0607
     25 H8          0.5293   -0.3651    0.8851 H         1 <0>         0.0618
     26 H9         -1.5574   -0.5770    2.1631 H         1 <0>         0.0685
     27 H10        -2.1228    0.9405    1.4244 H         1 <0>         0.0614
     28 H11        -4.0279   -0.3982    2.2772 H         1 <0>         0.0636
     29 H12        -4.0985   -0.2431    0.5055 H         1 <0>         0.0690
     30 H13        -0.9334   -2.3344   -1.0587 H         1 <0>         0.0607
     31 H14        -0.8628   -2.4894    0.7131 H         1 <0>         0.0735
     32 H15        -2.2737   -4.3910   -1.1369 H         1 <0>         0.0739
     33 H16        -2.3583   -4.5478    0.6341 H         1 <0>         0.0856
     34 H17        -4.4927   -4.8517    1.7539 H         1 <0>         0.1339
     35 H18        -6.8019   -5.6863    1.5707 H         1 <0>         0.1320
     36 H19        -6.5920   -5.3294   -2.6762 H         1 <0>         0.1326
     37 H20        -4.2867   -4.4849   -2.4902 H         1 <0>         0.1308
     38 H21        -3.1766   -2.5591    3.1673 H         1 <0>         0.3749
@<TRIPOS>BOND
     1    1    2 1
     2    1   21 1
     3    1   22 1
     4    1   23 1
     5    2    3 1
     6    2   24 1
     7    2   25 1
     8    3    4 1
     9    3   11 1
    10    3    5 1
    11    5    6 1
    12    5   26 1
    13    5   27 1
    14    6    7 1
    15    6   28 1
    16    6   29 1
    17    7    8 1
    18    7    9 1
    19    7   20 1
    20    9   10 1
    21    9   11 1
    22    9   12 1
    23   11   30 1
    24   11   31 1
    25   12   13 1
    26   12   32 1
    27   12   33 1
    28   13   18 ar
    29   13   14 ar
    30   14   15 ar
    31   14   34 1
    32   15   16 ar
    33   15   35 1
    34   16   17 ar
    35   16   19 1
    36   17   18 ar
    37   17   36 1
    38   18   37 1
    39   20   38 1
@<TRIPOS>MOLECULE
ZINC40242739
   35    36     0     0     0
SMALL
USER_CHARGES

@<TRIPOS>ATOM
      1 C1         -0.0187    1.5258    0.0104 C.3       1 <0>        -0.1488
      2 C2          0.0021   -0.0041    0.0020 C.3       1 <0>        -0.0424
      3 C3         -1.4117   -0.5257    0.0127 C.2       1 <0>        -0.1308
      4 C4         -2.2207   -0.8207   -1.0341 C.2       1 <0>        -0.1611
      5 C5         -3.4955   -1.2927   -0.7839 C.2       1 <0>        -0.1424
      6 C6         -3.8991   -1.4465    0.5009 C.2       1 <0>        -0.1785
      7 S1         -2.4530   -0.9228    1.4074 S.3       1 <0>         0.0460
      8 C7         -5.2230   -1.9376    1.0274 C.3       1 <0>         0.2366
      9 H1         -5.6980   -2.5733    0.2802 H         1 <0>         0.1290
     10 C8         -6.1141   -0.7590    1.3239 C.ar      1 <0>        -0.1141
     11 C9         -6.1672   -0.2369    2.6030 C.ar      1 <0>        -0.1044
     12 C10        -6.9844    0.8440    2.8749 C.ar      1 <0>        -0.0864
     13 C11        -7.7485    1.4035    1.8676 C.ar      1 <0>        -0.1125
     14 C12        -7.6948    0.8822    0.5887 C.ar      1 <0>        -0.1142
     15 C13        -6.8740   -0.1963    0.3158 C.ar      1 <0>        -0.0736
     16 C14        -6.8114   -0.7614   -1.0799 C.3       1 <0>        -0.1294
     17 C15        -7.0430    1.4124    4.2693 C.3       1 <0>        -0.1161
     18 O1         -5.0107   -2.6874    2.2253 O.3       1 <0>        -0.5411
     19 H2          1.0039    1.9031    0.0027 H         1 <0>         0.0653
     20 H3         -0.5459    1.8868   -0.8726 H         1 <0>         0.0588
     21 H4         -0.5289    1.8773    0.9072 H         1 <0>         0.0574
     22 H5          0.5123   -0.3556   -0.8948 H         1 <0>         0.0878
     23 H6          0.5293   -0.3651    0.8851 H         1 <0>         0.0797
     24 H7         -1.8744   -0.6887   -2.0486 H         1 <0>         0.1339
     25 H8         -4.1603   -1.5349   -1.5999 H         1 <0>         0.1352
     26 H9         -5.5703   -0.6740    3.3898 H         1 <0>         0.1197
     27 H10        -8.3877    2.2477    2.0802 H         1 <0>         0.1238
     28 H11        -8.2919    1.3191   -0.1981 H         1 <0>         0.1247
     29 H12        -7.5682   -1.5379   -1.1918 H         1 <0>         0.0748
     30 H13        -6.9967    0.0334   -1.8023 H         1 <0>         0.0706
     31 H14        -5.8240   -1.1886   -1.2549 H         1 <0>         0.0712
     32 H15        -6.2865    2.1896    4.3770 H         1 <0>         0.0712
     33 H16        -8.0302    1.8393    4.4465 H         1 <0>         0.0677
     34 H17        -6.8549    0.6194    4.9931 H         1 <0>         0.0673
     35 H18        -4.5904   -2.1834    2.9355 H         1 <0>         0.3749
@<TRIPOS>BOND
     1    1    2 1
     2    1   19 1
     3    1   20 1
     4    1   21 1
     5    2    3 1
     6    2   22 1
     7    2   23 1
     8    3    7 1
     9    3    4 2
    10    4    5 1
    11    4   24 1
    12    5    6 2
    13    5   25 1
    14    6    7 1
    15    6    8 1
    16    8    9 1
    17    8   10 1
    18    8   18 1
    19   10   15 ar
    20   10   11 ar
    21   11   12 ar
    22   11   26 1
    23   12   13 ar
    24   12   17 1
    25   13   14 ar
    26   13   27 1
    27   14   15 ar
    28   14   28 1
    29   15   16 1
    30   16   29 1
    31   16   30 1
    32   16   31 1
    33   17   32 1
    34   17   33 1
    35   17   34 1
    36   18   35 1
@<TRIPOS>MOLECULE
ZINC02476702
   30    31     0     0     0
SMALL
USER_CHARGES
2-cinnamylphenol
@<TRIPOS>ATOM
      1 C1         -4.8185   -0.4504    0.0221 C.ar      1 <0>        -0.1223
      2 C2         -4.8407    0.9328    0.0301 C.ar      1 <0>        -0.1191
      3 C3         -3.6589    1.6448    0.0283 C.ar      1 <0>        -0.1119
      4 C4         -2.4394    0.9666    0.0189 C.ar      1 <0>        -0.0539
      5 C5         -2.4240   -0.4286    0.0054 C.ar      1 <0>        -0.1164
      6 C6         -3.6128   -1.1288    0.0131 C.ar      1 <0>        -0.1178
      7 C7         -1.1695    1.7230    0.0170 C.2       1 <0>        -0.1255
      8 C8         -0.0126    1.0758    0.0080 C.2       1 <0>        -0.1272
      9 C9          1.2821    1.8470   -0.0003 C.3       1 <0>        -0.0460
     10 C10         2.1418    1.3977    1.1530 C.ar      1 <0>        -0.1050
     11 C11         2.1172    2.0941    2.3461 C.ar      1 <0>        -0.0997
     12 C12         2.9056    1.6824    3.4045 C.ar      1 <0>        -0.1260
     13 C13         3.7202    0.5727    3.2723 C.ar      1 <0>        -0.1069
     14 C14         3.7477   -0.1274    2.0819 C.ar      1 <0>        -0.1440
     15 C15         2.9541    0.2812    1.0196 C.ar      1 <0>         0.1069
     16 O1          2.9758   -0.4087   -0.1510 O.3       1 <0>        -0.4953
     17 H1         -5.7464   -1.0031    0.0232 H         1 <0>         0.1219
     18 H2         -5.7852    1.4565    0.0375 H         1 <0>         0.1231
     19 H3         -3.6775    2.7246    0.0346 H         1 <0>         0.1232
     20 H4         -1.4834   -0.9593   -0.0064 H         1 <0>         0.1238
     21 H5         -3.6022   -2.2087    0.0073 H         1 <0>         0.1229
     22 H6         -1.1842    2.8029    0.0229 H         1 <0>         0.1185
     23 H7          0.0021   -0.0041    0.0020 H         1 <0>         0.1169
     24 H8          1.8076    1.6648   -0.9377 H         1 <0>         0.0854
     25 H9          1.0713    2.9120    0.0970 H         1 <0>         0.0778
     26 H10         1.4819    2.9610    2.4518 H         1 <0>         0.1262
     27 H11         2.8850    2.2281    4.3363 H         1 <0>         0.1258
     28 H12         4.3352    0.2531    4.1005 H         1 <0>         0.1268
     29 H13         4.3838   -0.9941    1.9793 H         1 <0>         0.1286
     30 H14         3.6398   -0.0952   -0.7801 H         1 <0>         0.3891
@<TRIPOS>BOND
     1    1    6 ar
     2    1    2 ar
     3    1   17 1
     4    2    3 ar
     5    2   18 1
     6    3    4 ar
     7    3   19 1
     8    4    5 ar
     9    4    7 1
    10    5    6 ar
    11    5   20 1
    12    6   21 1
    13    7    8 2
    14    7   22 1
    15    8    9 1
    16    8   23 1
    17    9   10 1
    18    9   24 1
    19    9   25 1
    20   10   15 ar
    21   10   11 ar
    22   11   12 ar
    23   11   26 1
    24   12   13 ar
    25   12   27 1
    26   13   14 ar
    27   13   28 1
    28   14   15 ar
    29   14   29 1
    30   15   16 1
    31   16   30 1
@<TRIPOS>MOLECULE
ZINC20556578
   37    38     0     0     0
SMALL
USER_CHARGES
4-[[(1S,2R,3R)-2,3-dimethylcyclohexyl]amino]benzonitrile
@<TRIPOS>ATOM
      1 C1         -0.0366    1.0992   -2.4903 C.3       1 <0>        -0.1521
      2 C2         -0.7527    1.5927   -1.2315 C.3       1 <0>        -0.0840
      3 H1         -1.7847    1.2121   -1.2237 H         1 <0>         0.0718
      4 C3         -0.7734    3.1225   -1.2231 C.3       1 <0>        -0.1202
      5 C4         -1.4896    3.6159    0.0357 C.3       1 <0>        -0.1192
      6 C5         -0.7496    3.1091    1.2752 C.3       1 <0>        -0.1363
      7 C6         -0.7288    1.5792    1.2668 C.3       1 <0>         0.1553
      8 H2         -1.7518    1.1775    1.3131 H         1 <0>         0.0806
      9 C7         -0.0127    1.0858    0.0080 C.3       1 <0>        -0.0902
     10 H3          0.0022   -0.0141    0.0019 H         1 <0>         0.0762
     11 C8          1.4227    1.6154   -0.0028 C.3       1 <0>        -0.1558
     12 N1         -0.0203    1.0939    2.4537 N.pl3     1 <0>        -0.7435
     13 C9         -0.7013    0.9451    3.6584 C.ar      1 <0>         0.2561
     14 C10        -2.0540    1.2633    3.7352 C.ar      1 <0>        -0.2091
     15 C11        -2.7317    1.1127    4.9238 C.ar      1 <0>        -0.0164
     16 C12        -2.0572    0.6493    6.0573 C.ar      1 <0>        -0.1030
     17 C13        -0.6971    0.3356    5.9780 C.ar      1 <0>        -0.0168
     18 C14        -0.0266    0.4840    4.7850 C.ar      1 <0>        -0.2039
     19 C15        -2.7579    0.4957    7.2967 C.1       1 <0>         0.2604
     20 N2         -3.3138    0.3739    8.2799 N.1       1 <0>        -0.4357
     21 H4         -0.5686    1.4636   -3.3815 H         1 <0>         0.0565
     22 H5         -0.0218   -0.0007   -2.4963 H         1 <0>         0.0552
     23 H6          0.9954    1.4799   -2.4981 H         1 <0>         0.0593
     24 H7          0.2586    3.5032   -1.2309 H         1 <0>         0.0670
     25 H8         -1.3053    3.4869   -2.1143 H         1 <0>         0.0640
     26 H9         -1.5046    4.7158    0.0417 H         1 <0>         0.0659
     27 H10        -2.5216    3.2351    0.0435 H         1 <0>         0.0632
     28 H11         0.2824    3.4899    1.2674 H         1 <0>         0.0704
     29 H12        -1.2644    3.4638    2.1802 H         1 <0>         0.0665
     30 H13         1.9547    1.2509    0.8884 H         1 <0>         0.0516
     31 H14         1.4078    2.7153    0.0033 H         1 <0>         0.0659
     32 H15         1.9376    1.2607   -0.9078 H         1 <0>         0.0633
     33 H16         1.0499    0.8471    2.3928 H         1 <0>         0.4193
     34 H17        -2.5735    1.6252    2.8602 H         1 <0>         0.1300
     35 H18        -3.7825    1.3556    4.9816 H         1 <0>         0.1291
     36 H19        -0.1731   -0.0230    6.8516 H         1 <0>         0.1297
     37 H20         1.0241    0.2419    4.7230 H         1 <0>         0.1290
@<TRIPOS>BOND
     1    1    2 1
     2    1   21 1
     3    1   22 1
     4    1   23 1
     5    2    3 1
     6    2    9 1
     7    2    4 1
     8    4    5 1
     9    4   24 1
    10    4   25 1
    11    5    6 1
    12    5   26 1
    13    5   27 1
    14    6    7 1
    15    6   28 1
    16    6   29 1
    17    7    8 1
    18    7    9 1
    19    7   12 1
    20    9   10 1
    21    9   11 1
    22   11   30 1
    23   11   31 1
    24   11   32 1
    25   12   13 1
    26   12   33 1
    27   13   18 ar
    28   13   14 ar
    29   14   15 ar
    30   14   34 1
    31   15   16 ar
    32   15   35 1
    33   16   17 ar
    34   16   19 1
    35   17   18 ar
    36   17   36 1
    37   18   37 1
    38   19   20 3
@<TRIPOS>MOLECULE
ZINC36859253
   43    44     0     0     0
SMALL
USER_CHARGES

@<TRIPOS>ATOM
      1 C1          0.1884    1.5286   -0.0010 C.3       1 <0>        -0.1480
      2 C2          0.2091   -0.0012   -0.0094 C.3       1 <0>        -0.0864
      3 H1          0.7155   -0.3528   -0.9084 H         1 <0>         0.0694
      4 C3         -1.2262   -0.5308    0.0075 C.3       1 <0>        -0.1158
      5 C4         -1.9370   -0.0373    1.2693 C.3       1 <0>        -0.1215
      6 C5         -1.1917   -0.5441    2.5058 C.3       1 <0>        -0.0880
      7 H2         -1.1770   -1.6340    2.4998 H         1 <0>         0.0882
      8 C6          0.2436   -0.0145    2.4888 C.3       1 <0>         0.1530
      9 H3          0.7745   -0.3755    3.3696 H         1 <0>         0.0849
     10 C7          0.9544   -0.5079    1.2270 C.3       1 <0>        -0.1350
     11 N1          0.2237    1.4504    2.4968 N.pl3     1 <0>        -0.7223
     12 C8          1.3801    2.1596    2.8012 C.ar      1 <0>         0.2715
     13 C9          2.5575    1.4831    3.0927 C.ar      1 <0>        -0.2028
     14 C10         3.7042    2.1893    3.3946 C.ar      1 <0>        -0.0387
     15 C11         3.6914    3.5748    3.4102 C.ar      1 <0>        -0.1836
     16 C12         2.5328    4.2635    3.1238 C.ar      1 <0>        -0.0210
     17 C13         1.3651    3.5631    2.8100 C.ar      1 <0>        -0.1220
     18 C14         0.1593    4.2727    2.5050 C.1       1 <0>         0.2558
     19 N2         -0.7973    4.8356    2.2631 N.1       1 <0>        -0.4298
     20 C15        -1.9026   -0.0506    3.7675 C.3       1 <0>        -0.0918
     21 C16        -3.3379   -0.5802    3.7845 C.3       1 <0>        -0.1507
     22 C17        -1.1573   -0.5574    5.0040 C.3       1 <0>        -0.1496
     23 H4          1.1688    1.9037    0.2925 H         1 <0>         0.0572
     24 H5         -0.0568    1.8942   -0.9982 H         1 <0>         0.0427
     25 H6         -0.5616    1.8779    0.7086 H         1 <0>         0.0594
     26 H7         -1.7571   -0.1698   -0.8733 H         1 <0>         0.0627
     27 H8         -1.2114   -1.6207    0.0015 H         1 <0>         0.0641
     28 H9         -1.9518    1.0525    1.2753 H         1 <0>         0.0608
     29 H10        -2.9595   -0.4146    1.2814 H         1 <0>         0.0707
     30 H11         0.9692   -1.5978    1.2210 H         1 <0>         0.0729
     31 H12         1.9769   -0.1306    1.2149 H         1 <0>         0.0729
     32 H13        -0.5963    1.9254    2.2898 H         1 <0>         0.4021
     33 H14         2.5757    0.4033    3.0834 H         1 <0>         0.1317
     34 H15         4.6173    1.6586    3.6206 H         1 <0>         0.1276
     35 H16         4.5941    4.1177    3.6485 H         1 <0>         0.1281
     36 H17         2.5284    5.3434    3.1373 H         1 <0>         0.1289
     37 H18        -1.9173    1.0393    3.7735 H         1 <0>         0.0667
     38 H19        -3.3231   -1.6701    3.7785 H         1 <0>         0.0560
     39 H20        -3.8443   -0.2287    4.6834 H         1 <0>         0.0548
     40 H21        -3.8688   -0.2192    2.9037 H         1 <0>         0.0572
     41 H22        -1.1425   -1.6472    4.9980 H         1 <0>         0.0556
     42 H23        -0.1348   -0.1800    4.9919 H         1 <0>         0.0574
     43 H24        -1.6637   -0.2058    5.9029 H         1 <0>         0.0548
@<TRIPOS>BOND
     1    1    2 1
     2    1   23 1
     3    1   24 1
     4    1   25 1
     5    2    3 1
     6    2   10 1
     7    2    4 1
     8    4    5 1
     9    4   26 1
    10    4   27 1
    11    5    6 1
    12    5   28 1
    13    5   29 1
    14    6    7 1
    15    6    8 1
    16    6   20 1
    17    8    9 1
    18    8   10 1
    19    8   11 1
    20   10   30 1
    21   10   31 1
    22   11   12 1
    23   11   32 1
    24   12   17 ar
    25   12   13 ar
    26   13   14 ar
    27   13   33 1
    28   14   15 ar
    29   14   34 1
    30   15   16 ar
    31   15   35 1
    32   16   17 ar
    33   16   36 1
    34   17   18 1
    35   18   19 3
    36   20   21 1
    37   20   22 1
    38   20   37 1
    39   21   38 1
    40   21   39 1
    41   21   40 1
    42   22   41 1
    43   22   42 1
    44   22   43 1
@<TRIPOS>MOLECULE
ZINC37938036
   40    41     0     0     0
SMALL
USER_CHARGES

@<TRIPOS>ATOM
      1 C1         -0.2746    1.3936   -0.0981 C.3       1 <0>        -0.1554
      2 C2         -0.1042   -0.1248   -0.0183 C.3       1 <0>        -0.1208
      3 C3          0.6141   -0.6241   -1.2735 C.3       1 <0>        -0.0895
      4 C4          2.0353   -0.0586   -1.3068 C.3       1 <0>        -0.1200
      5 C5          2.7537   -0.5579   -2.5620 C.3       1 <0>        -0.1320
      6 C6          2.8135   -2.0866   -2.5413 C.3       1 <0>         0.2856
      7 C7          1.3922   -2.6521   -2.5080 C.3       1 <0>        -0.1173
      8 C8          0.6739   -2.1528   -1.2528 C.3       1 <0>        -0.1166
      9 C9          3.5472   -2.5328   -1.3458 C.1       1 <0>         0.1983
     10 N1          4.1135   -2.8772   -0.4232 N.1       1 <0>        -0.4139
     11 N2          3.5013   -2.5647   -3.7432 N.pl3     1 <0>        -0.7357
     12 C10         4.8316   -2.2079   -3.9750 C.ar      1 <0>         0.2086
     13 C11         5.5397   -1.4978   -3.0135 C.ar      1 <0>        -0.1946
     14 C12         6.8549   -1.1471   -3.2457 C.ar      1 <0>        -0.0784
     15 C13         7.4673   -1.5015   -4.4341 C.ar      1 <0>        -0.1664
     16 C14         6.7654   -2.2078   -5.3933 C.ar      1 <0>        -0.0755
     17 C15         5.4514   -2.5672   -5.1649 C.ar      1 <0>        -0.1531
     18 C16         4.6892   -3.3428   -6.2083 C.3       1 <0>        -0.1066
     19 H1          0.7053    1.8660   -0.1682 H         1 <0>         0.0564
     20 H2         -0.8640    1.6473   -0.9793 H         1 <0>         0.0548
     21 H3         -0.7864    1.7493    0.7961 H         1 <0>         0.0537
     22 H4          0.4852   -0.3784    0.8628 H         1 <0>         0.0611
     23 H5         -1.0841   -0.5971    0.0517 H         1 <0>         0.0640
     24 H6          0.0708   -0.2937   -2.1588 H         1 <0>         0.0784
     25 H7          1.9928    1.0305   -1.3215 H         1 <0>         0.0784
     26 H8          2.5787   -0.3890   -0.4215 H         1 <0>         0.0621
     27 H9          2.2104   -0.2275   -3.4472 H         1 <0>         0.0901
     28 H10         3.7662   -0.1550   -2.5857 H         1 <0>         0.0841
     29 H11         0.8489   -2.3217   -3.3933 H         1 <0>         0.0928
     30 H12         1.4348   -3.7412   -2.4933 H         1 <0>         0.0788
     31 H13         1.2172   -2.4832   -0.3676 H         1 <0>         0.0643
     32 H14        -0.3387   -2.5557   -1.2291 H         1 <0>         0.0782
     33 H15         3.0328   -3.1290   -4.3780 H         1 <0>         0.4082
     34 H16         5.0619   -1.2201   -2.0856 H         1 <0>         0.1212
     35 H17         7.4060   -0.5951   -2.4986 H         1 <0>         0.1200
     36 H18         8.4960   -1.2257   -4.6133 H         1 <0>         0.1198
     37 H19         7.2463   -2.4824   -6.3205 H         1 <0>         0.1226
     38 H20         4.1946   -2.6487   -6.8877 H         1 <0>         0.0686
     39 H21         5.3798   -3.9714   -6.7703 H         1 <0>         0.0679
     40 H22         3.9418   -3.9692   -5.7213 H         1 <0>         0.0577
@<TRIPOS>BOND
     1    1    2 1
     2    1   19 1
     3    1   20 1
     4    1   21 1
     5    2    3 1
     6    2   22 1
     7    2   23 1
     8    3    8 1
     9    3    4 1
    10    3   24 1
    11    4    5 1
    12    4   25 1
    13    4   26 1
    14    5    6 1
    15    5   27 1
    16    5   28 1
    17    6    7 1
    18    6    9 1
    19    6   11 1
    20    7    8 1
    21    7   29 1
    22    7   30 1
    23    8   31 1
    24    8   32 1
    25    9   10 3
    26   11   12 1
    27   11   33 1
    28   12   17 ar
    29   12   13 ar
    30   13   14 ar
    31   13   34 1
    32   14   15 ar
    33   14   35 1
    34   15   16 ar
    35   15   36 1
    36   16   17 ar
    37   16   37 1
    38   17   18 1
    39   18   38 1
    40   18   39 1
    41   18   40 1
@<TRIPOS>MOLECULE
ZINC54107823
   38    40     0     0     0
SMALL
USER_CHARGES

@<TRIPOS>ATOM
      1 C1         -0.0187    1.5258    0.0104 C.3       1 <0>        -0.1478
      2 C2          0.0021   -0.0041    0.0020 C.3       1 <0>        -0.0971
      3 H1         -1.0205   -0.3814    0.0098 H         1 <0>         0.0745
      4 C3          0.7182   -0.4975   -1.2568 C.3       1 <0>        -0.1122
      5 C4          0.7390   -2.0273   -1.2652 C.3       1 <0>        -0.1230
      6 C5          1.4790   -2.5342   -0.0257 C.3       1 <0>        -0.1187
      7 C6          0.7628   -2.0407    1.2331 C.3       1 <0>        -0.1360
      8 C7          0.7421   -0.5109    1.2415 C.3       1 <0>         0.1546
      9 H2          1.7647   -0.1336    1.2338 H         1 <0>         0.0804
     10 N1          0.0564   -0.0384    2.4469 N.pl3     1 <0>        -0.7370
     11 C8          0.7626    0.0979    3.6438 C.ar      1 <0>         0.2278
     12 C9          2.1273   -0.2131    3.6839 C.ar      1 <0>        -0.1555
     13 C10         2.8396   -0.0898    4.8345 C.ar      1 <0>        -0.0471
     14 C11         2.2069    0.3564    6.0089 C.ar      1 <0>         0.0783
     15 C12         0.8258    0.6733    5.9750 C.ar      1 <0>        -0.0471
     16 C13         0.1119    0.5427    4.7738 C.ar      1 <0>        -0.2057
     17 C14         0.1985    1.1194    7.1536 C.ar      1 <0>        -0.0795
     18 C15         0.9554    1.2274    8.2856 C.ar      1 <0>        -0.1609
     19 C16         2.3087    0.8995    8.2503 C.ar      1 <0>         0.1045
     20 N2          2.8898    0.4848    7.1508 N.ar      1 <0>        -0.4620
     21 H3          1.0039    1.9031    0.0027 H         1 <0>         0.0556
     22 H4         -0.5459    1.8868   -0.8726 H         1 <0>         0.0569
     23 H5         -0.5289    1.8773    0.9072 H         1 <0>         0.0567
     24 H6          0.1910   -0.1364   -2.1398 H         1 <0>         0.0678
     25 H7          1.7408   -0.1202   -1.2645 H         1 <0>         0.0653
     26 H8         -0.2836   -2.4046   -1.2575 H         1 <0>         0.0627
     27 H9          1.2492   -2.3788   -2.1620 H         1 <0>         0.0650
     28 H10         1.4937   -3.6240   -0.0317 H         1 <0>         0.0656
     29 H11         2.5015   -2.1569   -0.0334 H         1 <0>         0.0636
     30 H12        -0.2598   -2.4180    1.2409 H         1 <0>         0.0657
     31 H13         1.2900   -2.4018    2.1162 H         1 <0>         0.0665
     32 H14        -0.8882    0.1796    2.4135 H         1 <0>         0.4003
     33 H15         2.6211   -0.5564    2.7868 H         1 <0>         0.1307
     34 H16         3.8914   -0.3348    4.8474 H         1 <0>         0.1364
     35 H17        -0.9399    0.7852    4.7365 H         1 <0>         0.1254
     36 H18        -0.8521    1.3696    7.1626 H         1 <0>         0.1346
     37 H19         0.5052    1.5670    9.2067 H         1 <0>         0.1349
     38 H20         2.8950    0.9897    9.1528 H         1 <0>         0.1561
@<TRIPOS>BOND
     1    1    2 1
     2    1   21 1
     3    1   22 1
     4    1   23 1
     5    2    3 1
     6    2    8 1
     7    2    4 1
     8    4    5 1
     9    4   24 1
    10    4   25 1
    11    5    6 1
    12    5   26 1
    13    5   27 1
    14    6    7 1
    15    6   28 1
    16    6   29 1
    17    7    8 1
    18    7   30 1
    19    7   31 1
    20    8    9 1
    21    8   10 1
    22   10   11 1
    23   10   32 1
    24   11   16 ar
    25   11   12 ar
    26   12   13 ar
    27   12   33 1
    28   13   14 ar
    29   13   34 1
    30   14   20 ar
    31   14   15 ar
    32   15   16 ar
    33   15   17 ar
    34   16   35 1
    35   17   18 ar
    36   17   36 1
    37   18   19 ar
    38   18   37 1
    39   19   20 ar
    40   19   38 1
@<TRIPOS>MOLECULE
ZINC15015521
   43    46     0     0     0
SMALL
USER_CHARGES
7-[(R)-(2,6-dichlorophenyl)-(2-pyridylamino)methyl]quinolin-8-ol
@<TRIPOS>ATOM
      1 C1          1.3954    1.8095    0.1506 C.ar      1 <0>         0.0503
      2 C2          0.2570    1.0372    0.3416 C.ar      1 <0>        -0.1685
      3 C3         -0.9671    1.6598    0.4790 C.ar      1 <0>         0.1557
      4 C4         -0.0040    3.7459    0.2610 C.ar      1 <0>         0.4570
      5 C5          1.2605    3.1853    0.1099 C.ar      1 <0>        -0.2017
      6 N1         -0.1542    5.1272    0.2222 N.pl3     1 <0>        -0.6933
      7 C6          1.0159    5.9859    0.0230 C.3       1 <0>         0.2333
      8 H1          1.8625    5.5809    0.5774 H         1 <0>         0.1348
      9 C7          0.7094    7.3756    0.5189 C.ar      1 <0>        -0.1287
     10 C8         -0.6145    7.8006    0.5932 C.ar      1 <0>        -0.1086
     11 C9         -0.9249    9.0499    1.0372 C.ar      1 <0>        -0.0836
     12 C10         0.1017    9.9256    1.4268 C.ar      1 <0>        -0.0847
     13 C11        -0.1801   11.2246    1.8905 C.ar      1 <0>        -0.0595
     14 C12         0.8686   12.0212    2.2522 C.ar      1 <0>        -0.1568
     15 C13         2.1727   11.5401    2.1553 C.ar      1 <0>         0.1405
     16 N2          2.4307   10.3298    1.7230 N.ar      1 <0>        -0.4585
     17 C14         1.4506    9.5003    1.3539 C.ar      1 <0>         0.1046
     18 C15         1.7339    8.1971    0.8938 C.ar      1 <0>         0.1737
     19 O1          3.0191    7.7633    0.8198 O.3       1 <0>        -0.4723
     20 C16         1.3557    6.0396   -1.4442 C.ar      1 <0>        -0.1091
     21 C17         0.3527    6.2137   -2.3808 C.ar      1 <0>        -0.0066
     22 C18         0.6658    6.2672   -3.7274 C.ar      1 <0>        -0.0964
     23 C19         1.9793    6.1373   -4.1376 C.ar      1 <0>        -0.0762
     24 C20         2.9814    5.9581   -3.2025 C.ar      1 <0>        -0.0920
     25 C21         2.6701    5.9092   -1.8553 C.ar      1 <0>        -0.0285
     26 Cl1         3.9286    5.6835   -0.6810 Cl        1 <0>        -0.0242
     27 Cl2        -1.2979    6.3703   -1.8663 Cl        1 <0>        -0.0559
     28 H2          2.3642    1.3461    0.0359 H         1 <0>         0.1756
     29 H3          0.3283   -0.0398    0.3778 H         1 <0>         0.1850
     30 H4         -1.8554    1.0628    0.6236 H         1 <0>         0.1970
     31 H5          2.1249    3.8160   -0.0367 H         1 <0>         0.1731
     32 H6         -1.0337    5.5226    0.3270 H         1 <0>         0.4184
     33 H7         -1.4064    7.1299    0.2940 H         1 <0>         0.1216
     34 H8         -1.9563    9.3659    1.0899 H         1 <0>         0.1405
     35 H9         -1.1973   11.5810    1.9590 H         1 <0>         0.1471
     36 H10         0.6874   13.0232    2.6122 H         1 <0>         0.1476
     37 H11         2.9924   12.1810    2.4444 H         1 <0>         0.1689
     38 H12         3.4473    7.9449   -0.0280 H         1 <0>         0.3921
     39 H13        -0.1167    6.4072   -4.4585 H         1 <0>         0.1490
     40 H14         2.2228    6.1754   -5.1891 H         1 <0>         0.1540
     41 H15         4.0074    5.8559   -3.5236 H         1 <0>         0.1536
     42 N3         -1.1364    3.0088    0.4505 N.ar      1 <0>        -0.5354
     43 H16        -2.0587    3.4454    0.5644 H         1 <0>         0.4670
@<TRIPOS>BOND
     1    1    5 ar
     2    1    2 ar
     3    1   28 1
     4    2    3 ar
     5    2   29 1
     6    3   30 1
     7    3   42 ar
     8    4    5 ar
     9    4    6 1
    10    4   42 ar
    11    5   31 1
    12    6    7 1
    13    6   32 1
    14    7    8 1
    15    7    9 1
    16    7   20 1
    17    9   18 ar
    18    9   10 ar
    19   10   11 ar
    20   10   33 1
    21   11   12 ar
    22   11   34 1
    23   12   17 ar
    24   12   13 ar
    25   13   14 ar
    26   13   35 1
    27   14   15 ar
    28   14   36 1
    29   15   16 ar
    30   15   37 1
    31   16   17 ar
    32   17   18 ar
    33   18   19 1
    34   19   38 1
    35   20   25 ar
    36   20   21 ar
    37   21   22 ar
    38   21   27 1
    39   22   23 ar
    40   22   39 1
    41   23   24 ar
    42   23   40 1
    43   24   25 ar
    44   24   41 1
    45   25   26 1
    46   42   43 1
@<TRIPOS>MOLECULE
ZINC37072822
   44    45     0     0     0
SMALL
USER_CHARGES

@<TRIPOS>ATOM
      1 C1          0.9251   -2.0256   -0.7791 C.3       1 <0>        -0.1736
      2 C2          0.5379   -1.8741    0.6934 C.3       1 <0>        -0.1410
      3 C3          0.8033   -0.4366    1.1451 C.3       1 <0>         0.0786
      4 H1          0.2849    0.2547    0.4806 H         1 <0>         0.1588
      5 C4          0.3004   -0.2517    2.5537 C.ar      1 <0>        -0.1502
      6 C5          1.1853   -0.2889    3.6141 C.ar      1 <0>        -0.0982
      7 C6          0.7243   -0.1193    4.9071 C.ar      1 <0>        -0.0875
      8 C7         -0.6235    0.0879    5.1415 C.ar      1 <0>        -0.0522
      9 C8         -1.5114    0.1262    4.0842 C.ar      1 <0>        -0.1191
     10 C9         -1.0503   -0.0384    2.7860 C.ar      1 <0>         0.1574
     11 O1         -1.9217    0.0036    1.7438 O.3       1 <0>        -0.4881
     12 Br1         1.9376   -0.1712    6.3566 Br        1 <0>        -0.0143
     13 N1          2.2469   -0.1681    1.1014 N.4       1 <0>        -0.5104
     14 C10         2.4899    1.2516    1.3900 C.3       1 <0>         0.1272
     15 H2          2.0368    1.5106    2.3469 H         1 <0>         0.1551
     16 C11         1.8813    2.0969    0.3009 C.2       1 <0>        -0.2443
     17 C12         1.2176    3.2743    0.4044 C.2       1 <0>        -0.0750
     18 C13         0.7415    3.8786   -0.7440 C.2       1 <0>        -0.1685
     19 C14         0.9524    3.2761   -1.9397 C.2       1 <0>        -0.1136
     20 S1          1.8544    1.8115   -1.4612 S.3       1 <0>         0.0478
     21 C15         3.9968    1.5085    1.4530 C.3       1 <0>        -0.1090
     22 C16         4.2498    2.9791    1.7912 C.3       1 <0>        -0.1490
     23 C17         4.6205    0.6223    2.5331 C.3       1 <0>        -0.1791
     24 H3          1.9751   -1.7626   -0.9076 H         1 <0>         0.0501
     25 H4          0.7683   -3.0580   -1.0916 H         1 <0>         0.0890
     26 H5          0.3078   -1.3642   -1.3870 H         1 <0>         0.0780
     27 H6         -0.5204   -2.1040    0.8163 H         1 <0>         0.1113
     28 H7          1.1314   -2.5602    1.2976 H         1 <0>         0.0916
     29 H8          2.2377   -0.4509    3.4333 H         1 <0>         0.1280
     30 H9         -0.9816    0.2194    6.1519 H         1 <0>         0.1521
     31 H10        -2.5635    0.2876    4.2676 H         1 <0>         0.1547
     32 H11        -2.2995   -0.8558    1.5120 H         1 <0>         0.4039
     33 H12         2.7157   -0.7365    1.7907 H         1 <0>         0.4259
     34 H13         1.0628    3.7331    1.3698 H         1 <0>         0.1427
     35 H14         0.2091    4.8167   -0.6893 H         1 <0>         0.1513
     36 H15         0.6554    3.5999   -2.9263 H         1 <0>         0.2004
     37 H16         4.4459    1.2753    0.4876 H         1 <0>         0.0989
     38 H17         3.8007    3.2124    2.7566 H         1 <0>         0.0679
     39 H18         5.3234    3.1621    1.8361 H         1 <0>         0.0806
     40 H19         3.8055    3.6105    1.0217 H         1 <0>         0.0701
     41 H20         4.5447   -0.4231    2.2338 H         1 <0>         0.0543
     42 H21         5.6698    0.8886    2.6604 H         1 <0>         0.0951
     43 H22         4.0914    0.7700    3.4745 H         1 <0>         0.0749
     44 H23         2.6027   -0.3905    0.1837 H         1 <0>         0.4270
@<TRIPOS>BOND
     1    1    2 1
     2    1   24 1
     3    1   25 1
     4    1   26 1
     5    2    3 1
     6    2   27 1
     7    2   28 1
     8    3    4 1
     9    3    5 1
    10    3   13 1
    11    5   10 ar
    12    5    6 ar
    13    6    7 ar
    14    6   29 1
    15    7    8 ar
    16    7   12 1
    17    8    9 ar
    18    8   30 1
    19    9   10 ar
    20    9   31 1
    21   10   11 1
    22   11   32 1
    23   13   14 1
    24   13   33 1
    25   13   44 1
    26   14   15 1
    27   14   16 1
    28   14   21 1
    29   16   20 1
    30   16   17 2
    31   17   18 1
    32   17   34 1
    33   18   19 2
    34   18   35 1
    35   19   20 1
    36   19   36 1
    37   21   22 1
    38   21   23 1
    39   21   37 1
    40   22   38 1
    41   22   39 1
    42   22   40 1
    43   23   41 1
    44   23   42 1
    45   23   43 1
@<TRIPOS>MOLECULE
ZINC43264510
   38    39     0     0     0
SMALL
USER_CHARGES

@<TRIPOS>ATOM
      1 C1          0.5692    1.3448    0.4023 C.3       1 <0>        -0.1718
      2 C2          0.4500   -0.1683    0.2093 C.3       1 <0>        -0.1503
      3 C3          0.8366   -0.5314   -1.2258 C.3       1 <0>         0.0363
      4 H1          0.2282    0.0448   -1.9229 H         1 <0>         0.1540
      5 C4          0.5986   -2.0252   -1.4556 C.3       1 <0>         0.1651
      6 H2          1.1299   -2.5989   -0.6962 H         1 <0>         0.1107
      7 C5         -0.8769   -2.3185   -1.3658 C.2       1 <0>        -0.2174
      8 C6         -1.5994   -2.7419   -0.3003 C.2       1 <0>        -0.1134
      9 C7         -2.9581   -2.9482   -0.4506 C.2       1 <0>        -0.1264
     10 C8         -3.5275   -2.7205   -1.6604 C.2       1 <0>        -0.1582
     11 S1         -2.1275   -2.1907   -2.6334 S.3       1 <0>         0.1590
     12 Br1        -5.3360   -2.9081   -2.1798 Br        1 <0>         0.0612
     13 O1          1.0788   -2.3903   -2.7510 O.3       1 <0>        -0.3798
     14 C9          1.5332   -3.7421   -2.8428 C.3       1 <0>         0.1052
     15 C10         1.9117   -4.0491   -4.2688 C.ar      1 <0>        -0.0945
     16 C11         1.7933   -3.0734   -5.2409 C.ar      1 <0>        -0.0914
     17 C12         2.1404   -3.3549   -6.5488 C.ar      1 <0>        -0.1122
     18 C13         2.6062   -4.6123   -6.8858 C.ar      1 <0>        -0.0973
     19 C14         2.7250   -5.5885   -5.9149 C.ar      1 <0>        -0.1024
     20 C15         2.3831   -5.3056   -4.6042 C.ar      1 <0>        -0.0310
     21 Cl1         2.5383   -6.5294   -3.3828 Cl        1 <0>        -0.0601
     22 N1          2.2561   -0.2225   -1.4436 N.4       1 <0>        -0.6336
     23 H3          1.5968    1.6554    0.2131 H         1 <0>         0.0542
     24 H4         -0.0980    1.8535   -0.2936 H         1 <0>         0.0747
     25 H5          0.2938    1.6035    1.4247 H         1 <0>         0.0874
     26 H6          1.1172   -0.6770    0.9051 H         1 <0>         0.0941
     27 H7         -0.5776   -0.4788    0.3985 H         1 <0>         0.1179
     28 H8         -1.1207   -2.9160    0.6521 H         1 <0>         0.1453
     29 H9         -3.5570   -3.2858    0.3824 H         1 <0>         0.1504
     30 H10         2.4022   -3.8777   -2.1990 H         1 <0>         0.0789
     31 H11         0.7371   -4.4154   -2.5252 H         1 <0>         0.0829
     32 H12         1.4292   -2.0911   -4.9783 H         1 <0>         0.1359
     33 H13         2.0474   -2.5924   -7.3080 H         1 <0>         0.1339
     34 H14         2.8770   -4.8317   -7.9080 H         1 <0>         0.1383
     35 H15         3.0886   -6.5708   -6.1782 H         1 <0>         0.1407
     36 H16         2.8190   -0.7525   -0.7952 H         1 <0>         0.4327
     37 H17         2.5122   -0.4664   -2.3886 H         1 <0>         0.4427
     38 H18         2.4122    0.7634   -1.2967 H         1 <0>         0.4383
@<TRIPOS>BOND
     1    1    2 1
     2    1   23 1
     3    1   24 1
     4    1   25 1
     5    2    3 1
     6    2   26 1
     7    2   27 1
     8    3    4 1
     9    3    5 1
    10    3   22 1
    11    5    6 1
    12    5    7 1
    13    5   13 1
    14    7   11 1
    15    7    8 2
    16    8    9 1
    17    8   28 1
    18    9   10 2
    19    9   29 1
    20   10   11 1
    21   10   12 1
    22   13   14 1
    23   14   15 1
    24   14   30 1
    25   14   31 1
    26   15   20 ar
    27   15   16 ar
    28   16   17 ar
    29   16   32 1
    30   17   18 ar
    31   17   33 1
    32   18   19 ar
    33   18   34 1
    34   19   20 ar
    35   19   35 1
    36   20   21 1
    37   22   36 1
    38   22   37 1
    39   22   38 1
@<TRIPOS>MOLECULE
ZINC57987331
   35    36     0     0     0
SMALL
USER_CHARGES

@<TRIPOS>ATOM
      1 C1         -0.0187    1.5258    0.0104 C.3       1 <0>        -0.1806
      2 C2          0.0021   -0.0041    0.0020 C.3       1 <0>         0.0810
      3 H1         -1.0205   -0.3814    0.0098 H         1 <0>         0.1497
      4 C3          0.7309   -0.5033    1.2229 C.ar      1 <0>        -0.1446
      5 C4          2.1131   -0.5137    1.2464 C.ar      1 <0>        -0.1082
      6 C5          2.7822   -0.9714    2.3658 C.ar      1 <0>        -0.0976
      7 C6          2.0683   -1.4193    3.4631 C.ar      1 <0>        -0.0135
      8 C7          0.6850   -1.4086    3.4390 C.ar      1 <0>        -0.0984
      9 C8          0.0171   -0.9454    2.3211 C.ar      1 <0>        -0.0728
     10 Cl1         2.9079   -1.9949    4.8692 Cl        1 <0>        -0.0373
     11 N1          0.6897   -0.4778   -1.2066 N.4       1 <0>        -0.5090
     12 C9         -0.0856   -0.0931   -2.3936 C.3       1 <0>         0.0449
     13 C10         0.6198   -0.5791   -3.6335 C.ar      1 <0>        -0.1738
     14 C11         1.5520    0.2286   -4.2586 C.ar      1 <0>        -0.0611
     15 C12         2.1998   -0.2140   -5.3956 C.ar      1 <0>        -0.1359
     16 C13         1.9151   -1.4703   -5.9103 C.ar      1 <0>         0.1775
     17 C14         0.9795   -2.2796   -5.2811 C.ar      1 <0>        -0.1280
     18 C15         0.3379   -1.8339   -4.1406 C.ar      1 <0>        -0.0490
     19 Br1         0.5876   -3.9927   -5.9794 Br        1 <0>        -0.0055
     20 O1          2.5510   -1.9078   -7.0291 O.3       1 <0>        -0.4802
     21 H2          1.0039    1.9031    0.0027 H         1 <0>         0.0839
     22 H3         -0.5459    1.8868   -0.8726 H         1 <0>         0.0873
     23 H4         -0.5289    1.8773    0.9072 H         1 <0>         0.1093
     24 H5          2.6703   -0.1643    0.3896 H         1 <0>         0.1288
     25 H6          3.8620   -0.9798    2.3839 H         1 <0>         0.1467
     26 H7          0.1273   -1.7584    4.2951 H         1 <0>         0.1486
     27 H8         -1.0627   -0.9326    2.3040 H         1 <0>         0.1447
     28 H9          1.6080   -0.0627   -1.2556 H         1 <0>         0.4240
     29 H10        -1.0777   -0.5415   -2.3406 H         1 <0>         0.1431
     30 H11        -0.1790    0.9922   -2.4305 H         1 <0>         0.1451
     31 H12         1.7735    1.2066   -3.8577 H         1 <0>         0.1438
     32 H13         2.9272    0.4177   -5.8836 H         1 <0>         0.1525
     33 H14        -0.3874   -2.4646   -3.6480 H         1 <0>         0.1459
     34 H15         3.3740   -2.3840   -6.8530 H         1 <0>         0.4086
     35 H16         0.7761   -1.4825   -1.1724 H         1 <0>         0.4303
@<TRIPOS>BOND
     1    1    2 1
     2    1   21 1
     3    1   22 1
     4    1   23 1
     5    2    3 1
     6    2    4 1
     7    2   11 1
     8    4    9 ar
     9    4    5 ar
    10    5    6 ar
    11    5   24 1
    12    6    7 ar
    13    6   25 1
    14    7    8 ar
    15    7   10 1
    16    8    9 ar
    17    8   26 1
    18    9   27 1
    19   11   12 1
    20   11   28 1
    21   11   35 1
    22   12   13 1
    23   12   29 1
    24   12   30 1
    25   13   18 ar
    26   13   14 ar
    27   14   15 ar
    28   14   31 1
    29   15   16 ar
    30   15   32 1
    31   16   17 ar
    32   16   20 1
    33   17   18 ar
    34   17   19 1
    35   18   33 1
    36   20   34 1
@<TRIPOS>MOLECULE
ZINC63021358
   35    36     0     0     0
SMALL
USER_CHARGES

@<TRIPOS>ATOM
      1 C1         -0.0184    1.5028    0.0103 C.3       1 <0>        -0.1352
      2 C2          0.0021   -0.0041    0.0020 C.ar      1 <0>        -0.0407
      3 C3          0.0058   -0.6888   -1.1988 C.ar      1 <0>        -0.0991
      4 C4          0.0246   -2.0709   -1.2066 C.ar      1 <0>        -0.0648
      5 C5          0.0396   -2.7693   -0.0135 C.ar      1 <0>        -0.1385
      6 C6          0.0359   -2.0859    1.1877 C.ar      1 <0>        -0.1068
      7 C7          0.0229   -0.7022    1.1960 C.ar      1 <0>        -0.0334
      8 Cl1         0.0249    0.1571    2.7045 Cl        1 <0>        -0.0401
      9 C8          0.0596   -4.2761   -0.0228 C.3       1 <0>         0.1545
     10 H1         -0.2918   -4.6382   -0.9890 H         1 <0>         0.1638
     11 C9          1.4665   -4.7614    0.2140 C.ar      1 <0>        -0.1671
     12 C10         1.8458   -5.1958    1.4695 C.ar      1 <0>        -0.0666
     13 C11         3.1371   -5.6413    1.6874 C.ar      1 <0>        -0.1169
     14 C12         4.0515   -5.6529    0.6490 C.ar      1 <0>        -0.0244
     15 C13         3.6762   -5.2198   -0.6077 C.ar      1 <0>        -0.1858
     16 C14         2.3800   -4.7775   -0.8297 C.ar      1 <0>         0.1817
     17 O1          2.0074   -4.3554   -2.0667 O.3       1 <0>        -0.3103
     18 C15         3.0001   -4.3998   -3.0936 C.3       1 <0>         0.0193
     19 Br1         3.6536   -6.2347    3.4070 Br        1 <0>        -0.0181
     20 N1         -0.8189   -4.7841    1.0394 N.4       1 <0>        -0.6382
     21 H2          1.0042    1.8801    0.0026 H         1 <0>         0.0878
     22 H3         -0.5455    1.8639   -0.8728 H         1 <0>         0.0819
     23 H4         -0.5286    1.8543    0.9071 H         1 <0>         0.0818
     24 H5         -0.0063   -0.1438   -2.1311 H         1 <0>         0.1462
     25 H6          0.0271   -2.6054   -2.1450 H         1 <0>         0.1441
     26 H7          0.0474   -2.6316    2.1196 H         1 <0>         0.1279
     27 H8          1.1337   -5.1872    2.2815 H         1 <0>         0.1311
     28 H9          5.0594   -6.0004    0.8214 H         1 <0>         0.1498
     29 H10         4.3903   -5.2287   -1.4179 H         1 <0>         0.1524
     30 H11         3.8436   -3.7700   -2.8110 H         1 <0>         0.0665
     31 H12         3.3413   -5.4266   -3.2250 H         1 <0>         0.0672
     32 H13         2.5726   -4.0366   -4.0282 H         1 <0>         0.1142
     33 H14        -0.4936   -4.4489    1.9338 H         1 <0>         0.4300
     34 H15        -1.7609   -4.4592    0.8809 H         1 <0>         0.4438
     35 H16        -0.8055   -5.7930    1.0332 H         1 <0>         0.4421
@<TRIPOS>BOND
     1    1    2 1
     2    1   21 1
     3    1   22 1
     4    1   23 1
     5    2    7 ar
     6    2    3 ar
     7    3    4 ar
     8    3   24 1
     9    4    5 ar
    10    4   25 1
    11    5    6 ar
    12    5    9 1
    13    6    7 ar
    14    6   26 1
    15    7    8 1
    16    9   10 1
    17    9   11 1
    18    9   20 1
    19   11   16 ar
    20   11   12 ar
    21   12   13 ar
    22   12   27 1
    23   13   14 ar
    24   13   19 1
    25   14   15 ar
    26   14   28 1
    27   15   16 ar
    28   15   29 1
    29   16   17 1
    30   17   18 1
    31   18   30 1
    32   18   31 1
    33   18   32 1
    34   20   33 1
    35   20   34 1
    36   20   35 1
@<TRIPOS>MOLECULE
ZINC03114515
   42    46     0     0     0
SMALL
USER_CHARGES
1-(acenaphthen-5-yliminomethyl)naphthalen-2-ol
@<TRIPOS>ATOM
      1 C1          0.5186    2.0462   -3.0345 C.ar      1 <0>        -0.1231
      2 C2         -0.6044    2.8509   -3.2075 C.ar      1 <0>        -0.0985
      3 C3         -0.8078    3.9470   -2.4219 C.ar      1 <0>        -0.1193
      4 C4          0.1299    4.2755   -1.4368 C.ar      1 <0>        -0.0082
      5 C5          1.2760    3.4629   -1.2618 C.ar      1 <0>        -0.0696
      6 C6          1.4505    2.3375   -2.0847 C.ar      1 <0>        -0.0928
      7 C7          2.2169    3.7945   -0.2703 C.ar      1 <0>        -0.0615
      8 C8          2.0404    4.8853    0.5212 C.ar      1 <0>        -0.1543
      9 C9          0.9294    5.7170    0.3888 C.ar      1 <0>         0.1775
     10 C10        -0.0456    5.4461   -0.5763 C.ar      1 <0>        -0.1137
     11 C11        -1.2153    6.3142   -0.7228 C.2       1 <0>         0.2030
     12 N1         -1.3575    7.3566    0.0542 N.2       1 <0>        -0.4525
     13 C12        -2.4961    8.1033   -0.0088 C.ar      1 <0>         0.0949
     14 C13        -3.7538    7.5026    0.0088 C.ar      1 <0>        -0.1475
     15 C14        -4.9250    8.2490   -0.0552 C.ar      1 <0>        -0.0926
     16 C15        -4.8952    9.6101   -0.1374 C.ar      1 <0>        -0.0863
     17 C16        -3.6612   10.2529   -0.1568 C.ar      1 <0>        -0.0704
     18 C17        -2.4399    9.5609   -0.0908 C.ar      1 <0>        -0.0294
     19 C18        -1.2562   10.3059   -0.1229 C.ar      1 <0>        -0.0919
     20 C19        -1.3381   11.6681   -0.2053 C.ar      1 <0>        -0.1152
     21 C20        -2.5615   12.3381   -0.2647 C.ar      1 <0>        -0.1009
     22 C21        -3.7306   11.6401   -0.2416 C.ar      1 <0>        -0.0833
     23 C22        -5.1912   12.0167   -0.2879 C.3       1 <0>        -0.0771
     24 C23        -5.9597   10.6794   -0.2195 C.3       1 <0>        -0.0770
     25 O1          0.7932    6.7946    1.2009 O.3       1 <0>        -0.4712
     26 H1          0.6551    1.1806   -3.6657 H         1 <0>         0.1265
     27 H2         -1.3265    2.6009   -3.9707 H         1 <0>         0.1271
     28 H3         -1.6853    4.5607   -2.5626 H         1 <0>         0.1277
     29 H4          2.3191    1.7070   -1.9651 H         1 <0>         0.1312
     30 H5          3.0913    3.1748   -0.1366 H         1 <0>         0.1347
     31 H6          2.7809    5.1137    1.2734 H         1 <0>         0.1347
     32 H7         -1.9608    6.0938   -1.4725 H         1 <0>         0.1095
     33 H8         -3.8203    6.4266    0.0736 H         1 <0>         0.1225
     34 H9         -5.8778    7.7407   -0.0390 H         1 <0>         0.1240
     35 H10        -0.2956    9.8143   -0.0795 H         1 <0>         0.1339
     36 H11        -0.4255   12.2454   -0.2256 H         1 <0>         0.1247
     37 H12        -2.5808   13.4159   -0.3296 H         1 <0>         0.1245
     38 H13        -5.4181   12.5355   -1.2193 H         1 <0>         0.0866
     39 H14        -5.4469   12.6434    0.5664 H         1 <0>         0.0868
     40 H15        -6.5626   10.5440   -1.1175 H         1 <0>         0.0863
     41 H16        -6.5917   10.6521    0.6682 H         1 <0>         0.0865
     42 H17         0.3135    6.6115    2.0203 H         1 <0>         0.3939
@<TRIPOS>BOND
     1    1    6 ar
     2    1    2 ar
     3    1   26 1
     4    2    3 ar
     5    2   27 1
     6    3    4 ar
     7    3   28 1
     8    4   10 ar
     9    4    5 ar
    10    5    6 ar
    11    5    7 ar
    12    6   29 1
    13    7    8 ar
    14    7   30 1
    15    8    9 ar
    16    8   31 1
    17    9   10 ar
    18    9   25 1
    19   10   11 1
    20   11   12 2
    21   11   32 1
    22   12   13 1
    23   13   18 ar
    24   13   14 ar
    25   14   15 ar
    26   14   33 1
    27   15   16 ar
    28   15   34 1
    29   16   24 1
    30   16   17 ar
    31   17   22 ar
    32   17   18 ar
    33   18   19 ar
    34   19   20 ar
    35   19   35 1
    36   20   21 ar
    37   20   36 1
    38   21   22 ar
    39   21   37 1
    40   22   23 1
    41   23   24 1
    42   23   38 1
    43   23   39 1
    44   24   40 1
    45   24   41 1
    46   25   42 1
@<TRIPOS>MOLECULE
ZINC16137882
   50    51     0     0     0
SMALL
USER_CHARGES
(4E,8E,12S)-12-cyclohexylsulfanylcyclododeca-4,8-dien-1-one oxime
@<TRIPOS>ATOM
      1 C1          1.5332    8.5042    1.9589 C.3       1 <0>        -0.1209
      2 C2          1.2165    7.5406    3.1043 C.3       1 <0>        -0.1151
      3 C3          2.1619    6.3395    3.0364 C.3       1 <0>        -0.0948
      4 C4          1.9772    5.6201    1.6988 C.3       1 <0>        -0.1000
      5 C5          2.2938    6.5837    0.5534 C.3       1 <0>        -0.1135
      6 C6          1.3484    7.7848    0.6213 C.3       1 <0>        -0.1179
      7 S1          3.0980    4.1960    1.6183 S.3       1 <0>        -0.1720
      8 C7          2.6938    3.4083    0.0350 C.3       1 <0>        -0.0081
      9 H1          2.5565    4.1749   -0.7277 H         1 <0>         0.1056
     10 C8          3.8354    2.4770   -0.3775 C.3       1 <0>        -0.0992
     11 C9          4.7521    2.2316    0.8226 C.3       1 <0>        -0.0998
     12 C10         4.0759    1.2925    1.7879 C.2       1 <0>        -0.1561
     13 C11         3.6103    1.7458    2.9254 C.2       1 <0>        -0.1385
     14 C12         2.9353    0.8063    3.8912 C.3       1 <0>        -0.0832
     15 C13         1.5753    1.3796    4.2943 C.3       1 <0>        -0.0854
     16 C14         0.6872    1.4667    3.0798 C.2       1 <0>        -0.1374
     17 C15         0.2089    2.6256    2.7000 C.2       1 <0>        -0.1585
     18 C16        -0.6821    2.7123    1.4877 C.3       1 <0>        -0.0895
     19 C17         0.1002    3.3202    0.3154 C.3       1 <0>        -0.1145
     20 C18         1.4231    2.6112    0.1804 C.2       1 <0>         0.1447
     21 N1          1.4670    1.3324    0.1840 N.2       1 <0>        -0.3060
     22 O1          0.2731    0.5834    0.3207 O.3       1 <0>        -0.4076
     23 H2          0.8597    9.3599    2.0072 H         1 <0>         0.0627
     24 H3          2.5639    8.8477    2.0474 H         1 <0>         0.0634
     25 H4          0.1858    7.1972    3.0157 H         1 <0>         0.0623
     26 H5          1.3481    8.0531    4.0572 H         1 <0>         0.0665
     27 H6          1.9363    5.6530    3.8524 H         1 <0>         0.0679
     28 H7          3.1926    6.6829    3.1249 H         1 <0>         0.0694
     29 H8          0.9465    5.2766    1.6102 H         1 <0>         0.0928
     30 H9          3.3245    6.9271    0.6419 H         1 <0>         0.0742
     31 H10         2.1622    6.0712   -0.3996 H         1 <0>         0.0588
     32 H11         0.3178    7.4414    0.5327 H         1 <0>         0.0607
     33 H12         1.5740    8.4713   -0.1947 H         1 <0>         0.0645
     34 H13         3.4240    1.5277   -0.7206 H         1 <0>         0.0925
     35 H14         4.4071    2.9377   -1.1831 H         1 <0>         0.0732
     36 H15         5.6878    1.7892    0.4806 H         1 <0>         0.0725
     37 H16         4.9589    3.1784    1.3215 H         1 <0>         0.0871
     38 H17         3.9747    0.2458    1.5419 H         1 <0>         0.1007
     39 H18         3.7092    2.7929    3.1706 H         1 <0>         0.1225
     40 H19         2.7939   -0.1641    3.4154 H         1 <0>         0.0614
     41 H20         3.5574    0.6887    4.7785 H         1 <0>         0.0672
     42 H21         1.1126    0.7296    5.0370 H         1 <0>         0.0654
     43 H22         1.7114    2.3751    4.7171 H         1 <0>         0.0635
     44 H23         0.4454    0.5737    2.5226 H         1 <0>         0.1097
     45 H24         0.4523    3.5188    3.2562 H         1 <0>         0.1012
     46 H25        -1.0225    1.7134    1.2148 H         1 <0>         0.0909
     47 H26        -1.5436    3.3404    1.7141 H         1 <0>         0.0651
     48 H27         0.2733    4.3789    0.5084 H         1 <0>         0.0758
     49 H28        -0.4684    3.2073   -0.6077 H         1 <0>         0.0827
     50 H29         0.4064   -0.3743    0.3123 H         1 <0>         0.3931
@<TRIPOS>BOND
     1    1    6 1
     2    1    2 1
     3    1   23 1
     4    1   24 1
     5    2    3 1
     6    2   25 1
     7    2   26 1
     8    3    4 1
     9    3   27 1
    10    3   28 1
    11    4    5 1
    12    4    7 1
    13    4   29 1
    14    5    6 1
    15    5   30 1
    16    5   31 1
    17    6   32 1
    18    6   33 1
    19    7    8 1
    20    8    9 1
    21    8   20 1
    22    8   10 1
    23   10   11 1
    24   10   34 1
    25   10   35 1
    26   11   12 1
    27   11   36 1
    28   11   37 1
    29   12   13 2
    30   12   38 1
    31   13   14 1
    32   13   39 1
    33   14   15 1
    34   14   40 1
    35   14   41 1
    36   15   16 1
    37   15   42 1
    38   15   43 1
    39   16   17 2
    40   16   44 1
    41   17   18 1
    42   17   45 1
    43   18   19 1
    44   18   46 1
    45   18   47 1
    46   19   20 1
    47   19   48 1
    48   19   49 1
    49   20   21 2
    50   21   22 1
    51   22   50 1
@<TRIPOS>MOLECULE
ZINC35631961
   30    31     0     0     0
SMALL
USER_CHARGES

@<TRIPOS>ATOM
      1 C1         -0.0165    1.9203    0.3647 C.3       1 <0>        -0.1418
      2 C2          0.0916    0.4102    0.1444 C.3       1 <0>         0.1516
      3 H1         -0.9072   -0.0150    0.0458 H         1 <0>         0.0749
      4 C3          0.7920   -0.2202    1.3204 C.ar      1 <0>        -0.1141
      5 C4          2.1547   -0.4436    1.2747 C.ar      1 <0>        -0.1035
      6 C5          2.7985   -1.0228    2.3548 C.ar      1 <0>         0.0756
      7 C6          2.0780   -1.3790    3.4825 C.ar      1 <0>        -0.1113
      8 C7          0.7156   -1.1569    3.5311 C.ar      1 <0>        -0.1622
      9 C8          0.0699   -0.5713    2.4515 C.ar      1 <0>         0.1168
     10 O1         -1.2698   -0.3466    2.5003 O.3       1 <0>        -0.2392
     11 C9         -1.9189   -0.6095    3.6652 C.ar      1 <0>         0.1074
     12 C10        -2.5271   -1.8412    3.8586 C.ar      1 <0>        -0.0922
     13 C11        -3.1869   -2.1066    5.0441 C.ar      1 <0>        -0.0179
     14 C12        -3.2409   -1.1438    6.0382 C.ar      1 <0>        -0.0187
     15 C13        -2.6350    0.0849    5.8471 C.ar      1 <0>        -0.0785
     16 C14        -1.9693    0.3522    4.6652 C.ar      1 <0>        -0.0353
     17 Cl1        -1.2026    1.8917    4.4291 Cl        1 <0>        -0.0222
     18 Cl2        -4.0705   -1.4794    7.5258 Cl        1 <0>        -0.0215
     19 Cl3        -3.9486   -3.6476    5.2866 Cl        1 <0>        -0.0222
     20 F1          4.1309   -1.2410    2.3086 F         1 <0>        -0.1349
     21 O2          0.8378    0.1548   -1.0473 O.3       1 <0>        -0.5587
     22 H2          0.9823    2.3455    0.4633 H         1 <0>         0.0639
     23 H3         -0.5231    2.3763   -0.4859 H         1 <0>         0.0698
     24 H4         -0.5856    2.1151    1.2737 H         1 <0>         0.0737
     25 H5          2.7179   -0.1667    0.3958 H         1 <0>         0.1535
     26 H6          2.5815   -1.8310    4.3243 H         1 <0>         0.1429
     27 H7          0.1539   -1.4349    4.4107 H         1 <0>         0.1360
     28 H8         -2.4854   -2.5920    3.0835 H         1 <0>         0.1634
     29 H9         -2.6786    0.8346    6.6234 H         1 <0>         0.1639
     30 H10         0.9462   -0.7845   -1.2498 H         1 <0>         0.3808
@<TRIPOS>BOND
     1    1    2 1
     2    1   22 1
     3    1   23 1
     4    1   24 1
     5    2    3 1
     6    2    4 1
     7    2   21 1
     8    4    9 ar
     9    4    5 ar
    10    5    6 ar
    11    5   25 1
    12    6    7 ar
    13    6   20 1
    14    7    8 ar
    15    7   26 1
    16    8    9 ar
    17    8   27 1
    18    9   10 1
    19   10   11 1
    20   11   16 ar
    21   11   12 ar
    22   12   13 ar
    23   12   28 1
    24   13   14 ar
    25   13   19 1
    26   14   15 ar
    27   14   18 1
    28   15   16 ar
    29   15   29 1
    30   16   17 1
    31   21   30 1
@<TRIPOS>MOLECULE
ZINC37629365
   57    60     0     0     0
SMALL
USER_CHARGES

@<TRIPOS>ATOM
      1 C1          1.1213    1.0795    1.9751 C.3       1 <0>        -0.1531
      2 C2          0.9760   -0.4143    1.6776 C.3       1 <0>         0.0556
      3 O1          1.5903   -0.7118    0.4221 O.3       1 <0>        -0.3252
      4 C3          1.5496   -2.0008    0.0078 C.2       1 <0>         0.1008
      5 C4          0.9457   -2.8885    0.7911 C.2       1 <0>        -0.2564
      6 C5          0.8779   -4.3071    0.3781 C.2       1 <0>        -0.0562
      7 C6          0.5974   -5.2195    1.2922 C.2       1 <0>        -0.1657
      8 C7          0.5053   -6.6779    0.8986 C.3       1 <0>        -0.0818
      9 C8          1.5782   -6.9195   -0.1550 C.3       1 <0>        -0.0566
     10 H1          2.5381   -6.5413    0.2655 H         1 <0>         0.0653
     11 C9          1.2866   -6.0760   -1.4004 C.3       1 <0>        -0.0640
     12 H2          2.2027   -6.1410   -2.0222 H         1 <0>         0.0599
     13 C10         1.1289   -4.6120   -1.0708 C.3       1 <0>        -0.0090
     14 C11         2.3778   -3.8343   -1.5037 C.3       1 <0>        -0.1013
     15 C12         2.1862   -2.3370   -1.3039 C.3       1 <0>        -0.0699
     16 C13        -0.0540   -4.0434   -1.8510 C.3       1 <0>        -0.1438
     17 C14         0.1707   -6.6614   -2.2459 C.3       1 <0>        -0.1079
     18 C15         0.4885   -8.1190   -2.6468 C.3       1 <0>        -0.1041
     19 C16         0.6539   -8.9416   -1.3938 C.3       1 <0>        -0.0312
     20 C17         1.7911   -8.3484   -0.5404 C.3       1 <0>        -0.0770
     21 H3          2.7322   -8.3878   -1.1377 H         1 <0>         0.0666
     22 C18         1.9318   -9.3956    0.5701 C.3       1 <0>        -0.1128
     23 C19         1.8103  -10.7330   -0.2142 C.3       1 <0>        -0.1445
     24 C20         1.1301  -10.3930   -1.5668 C.3       1 <0>         0.2412
     25 C21         2.0825  -10.5289   -2.6720 C.1       1 <0>        -0.2062
     26 C22         2.8456  -10.6378   -3.5575 C.1       1 <0>        -0.1805
     27 O2         -0.0005  -11.2442   -1.7727 O.3       1 <0>        -0.5403
     28 C23        -0.6778   -9.0183   -0.6384 C.3       1 <0>        -0.1383
     29 H4          2.1788    1.3404    2.0170 H         1 <0>         0.0657
     30 H5          0.6359    1.6557    1.1874 H         1 <0>         0.0658
     31 H6          0.6528    1.3065    2.9327 H         1 <0>         0.0779
     32 H7          1.4615   -0.9905    2.4652 H         1 <0>         0.0612
     33 H8         -0.0814   -0.6752    1.6356 H         1 <0>         0.0613
     34 H9          0.5015   -2.5747    1.7254 H         1 <0>         0.1211
     35 H10         0.4335   -4.9307    2.3166 H         1 <0>         0.1077
     36 H11         0.6729   -7.3028    1.7736 H         1 <0>         0.0710
     37 H12        -0.4952   -6.8402    0.5004 H         1 <0>         0.0812
     38 H13         3.2304   -4.1778   -0.9110 H         1 <0>         0.0664
     39 H14         2.5780   -4.0429   -2.5577 H         1 <0>         0.0769
     40 H15         1.5918   -1.9213   -2.1158 H         1 <0>         0.0878
     41 H16         3.1721   -1.8542   -1.3367 H         1 <0>         0.0815
     42 H17        -0.1145   -2.9676   -1.6863 H         1 <0>         0.0561
     43 H18         0.0833   -4.2411   -2.9141 H         1 <0>         0.0587
     44 H19        -0.9752   -4.5156   -1.5097 H         1 <0>         0.0573
     45 H20        -0.7757   -6.6257   -1.7228 H         1 <0>         0.0693
     46 H21         0.0869   -6.1102   -3.1902 H         1 <0>         0.0637
     47 H22        -0.3353   -8.5094   -3.2488 H         1 <0>         0.0665
     48 H23         1.4025   -8.1136   -3.2431 H         1 <0>         0.0616
     49 H24         2.9159   -9.3209    1.0398 H         1 <0>         0.0670
     50 H25         1.1498   -9.3020    1.3163 H         1 <0>         0.0776
     51 H26         2.8010  -11.1512   -0.3915 H         1 <0>         0.0698
     52 H27         1.1989  -11.4400    0.3446 H         1 <0>         0.0819
     53 H28         3.5281  -10.7353   -4.3494 H         1 <0>         0.2183
     54 H29         0.2257  -12.1770   -1.8898 H         1 <0>         0.3761
     55 H30        -1.3924   -9.6005   -1.2202 H         1 <0>         0.0676
     56 H31        -0.5203   -9.4971    0.3280 H         1 <0>         0.0577
     57 H32        -1.0676   -8.0118   -0.4861 H         1 <0>         0.0614
@<TRIPOS>BOND
     1    1    2 1
     2    1   29 1
     3    1   30 1
     4    1   31 1
     5    2    3 1
     6    2   32 1
     7    2   33 1
     8    3    4 1
     9    4   15 1
    10    4    5 2
    11    5    6 1
    12    5   34 1
    13    6   13 1
    14    6    7 2
    15    7    8 1
    16    7   35 1
    17    8    9 1
    18    8   36 1
    19    8   37 1
    20    9   10 1
    21    9   20 1
    22    9   11 1
    23   11   12 1
    24   11   13 1
    25   11   17 1
    26   13   14 1
    27   13   16 1
    28   14   15 1
    29   14   38 1
    30   14   39 1
    31   15   40 1
    32   15   41 1
    33   16   42 1
    34   16   43 1
    35   16   44 1
    36   17   18 1
    37   17   45 1
    38   17   46 1
    39   18   19 1
    40   18   47 1
    41   18   48 1
    42   19   24 1
    43   19   20 1
    44   19   28 1
    45   20   21 1
    46   20   22 1
    47   22   23 1
    48   22   49 1
    49   22   50 1
    50   23   24 1
    51   23   51 1
    52   23   52 1
    53   24   25 1
    54   24   27 1
    55   25   26 3
    56   26   53 1
    57   27   54 1
    58   28   55 1
    59   28   56 1
    60   28   57 1
@<TRIPOS>MOLECULE
ZINC54824825
   31    32     0     0     0
SMALL
USER_CHARGES

@<TRIPOS>ATOM
      1 C1         -0.0167    1.3790    0.0096 C.ar      1 <0>        -0.0336
      2 C2          1.1692    2.0878    0.0021 C.ar      1 <0>        -0.1832
      3 C3          2.3812    1.4107   -0.0131 C.ar      1 <0>         0.2454
      4 C4          2.3975    0.0206   -0.0208 C.ar      1 <0>        -0.1107
      5 C5          1.2082   -0.6825   -0.0132 C.ar      1 <0>        -0.0309
      6 C6          0.0021   -0.0041    0.0020 C.ar      1 <0>        -0.1400
      7 Br1        -1.6237   -0.9698    0.0130 Br        1 <0>        -0.0449
      8 Cl1         3.9103   -0.8306   -0.0404 Cl        1 <0>        -0.0607
      9 N1          3.5827    2.1254   -0.0212 N.pl3     1 <0>        -0.7366
     10 C7          3.5637    3.5902   -0.0136 C.3       1 <0>         0.1583
     11 H1          2.7231    3.9396    0.5858 H         1 <0>         0.1068
     12 C8          3.4174    4.1058   -1.4467 C.3       1 <0>        -0.1419
     13 C9          3.3976    5.6357   -1.4388 C.3       1 <0>        -0.1180
     14 C10         4.7041    6.1595   -0.8392 C.3       1 <0>        -0.1293
     15 C11         4.8504    5.6439    0.5939 C.3       1 <0>        -0.1087
     16 C12         4.8702    4.1141    0.5859 C.3       1 <0>        -0.0004
     17 H2          4.9745    3.7468    1.6069 H         1 <0>         0.1226
     18 C13         6.0055    3.6423   -0.2236 C.1       1 <0>         0.2011
     19 N2          6.8816    3.2781   -0.8483 N.1       1 <0>        -0.4179
     20 H3         -0.9595    1.9055    0.0260 H         1 <0>         0.1393
     21 H4          1.1535    3.1677    0.0077 H         1 <0>         0.1422
     22 H5          1.2197   -1.7624   -0.0195 H         1 <0>         0.1422
     23 H6          4.4289    1.6513   -0.0319 H         1 <0>         0.4042
     24 H7          4.2581    3.7564   -2.0461 H         1 <0>         0.0665
     25 H8          2.4866    3.7326   -1.8739 H         1 <0>         0.0769
     26 H9          3.2934    6.0030   -2.4597 H         1 <0>         0.0707
     27 H10         2.5570    5.9851   -0.8393 H         1 <0>         0.0714
     28 H11         5.5448    5.8101   -1.4386 H         1 <0>         0.0619
     29 H12         4.6900    7.2494   -0.8336 H         1 <0>         0.0754
     30 H13         5.7812    6.0171    1.0210 H         1 <0>         0.0805
     31 H14         4.0098    5.9933    1.1933 H         1 <0>         0.0911
@<TRIPOS>BOND
     1    1    6 ar
     2    1    2 ar
     3    1   20 1
     4    2    3 ar
     5    2   21 1
     6    3    4 ar
     7    3    9 1
     8    4    5 ar
     9    4    8 1
    10    5    6 ar
    11    5   22 1
    12    6    7 1
    13    9   10 1
    14    9   23 1
    15   10   11 1
    16   10   16 1
    17   10   12 1
    18   12   13 1
    19   12   24 1
    20   12   25 1
    21   13   14 1
    22   13   26 1
    23   13   27 1
    24   14   15 1
    25   14   28 1
    26   14   29 1
    27   15   16 1
    28   15   30 1
    29   15   31 1
    30   16   17 1
    31   16   18 1
    32   18   19 3
@<TRIPOS>MOLECULE
ZINC00286125
   33    35     0     0     0
SMALL
USER_CHARGES
N-(3-chlorophenyl)-4-(4-chlorophenyl)-5-methyl-thiazol-2-amine
@<TRIPOS>ATOM
      1 C1          2.4906    7.4908   -0.6485 C.3       1 <0>        -0.0620
      2 C2          3.0450    6.1094   -0.4132 C.2       1 <0>        -0.1879
      3 C3          4.3321    5.6603   -0.5030 C.2       1 <0>         0.1161
      4 N1          4.5957    4.3824   -0.2414 N.2       1 <0>        -0.5427
      5 C4          3.6339    3.5412    0.0914 C.2       1 <0>         0.3533
      6 S1          2.1997    4.6071    0.0608 S.3       1 <0>         0.0267
      7 N2          3.7158    2.1902    0.3911 N.pl3     1 <0>        -0.6104
      8 C5          2.5500    1.4503    0.6069 C.ar      1 <0>         0.1754
      9 C6          2.5557    0.3870    1.5014 C.ar      1 <0>        -0.1406
     10 C7          1.4024   -0.3423    1.7127 C.ar      1 <0>        -0.0712
     11 C8          0.2419   -0.0161    1.0350 C.ar      1 <0>        -0.1286
     12 C9          0.2320    1.0422    0.1434 C.ar      1 <0>         0.0015
     13 C10         1.3833    1.7764   -0.0722 C.ar      1 <0>        -0.1557
     14 Cl1        -1.2273    1.4483   -0.7046 Cl        1 <0>        -0.0559
     15 C11         5.4250    6.5887   -0.8817 C.ar      1 <0>        -0.0134
     16 C12         6.4186    6.1749   -1.7674 C.ar      1 <0>        -0.0743
     17 C13         7.4308    7.0439   -2.1199 C.ar      1 <0>        -0.1112
     18 C14         7.4660    8.3216   -1.5880 C.ar      1 <0>        -0.0298
     19 C15         6.4845    8.7357   -0.7038 C.ar      1 <0>        -0.1095
     20 C16         5.4653    7.8760   -0.3486 C.ar      1 <0>        -0.0919
     21 Cl2         8.7456    9.4080   -2.0309 Cl        1 <0>        -0.0677
     22 H1          1.4033    7.4630   -0.5768 H         1 <0>         0.0755
     23 H2          2.8868    8.1742    0.1026 H         1 <0>         0.0822
     24 H3          2.7805    7.8345   -1.6414 H         1 <0>         0.0843
     25 H4          4.5823    1.7583    0.4510 H         1 <0>         0.4297
     26 H5          3.4614    0.1317    2.0314 H         1 <0>         0.1383
     27 H6          1.4056   -1.1658    2.4115 H         1 <0>         0.1429
     28 H7         -0.6587   -0.5883    1.2023 H         1 <0>         0.1401
     29 H8          1.3755    2.6023   -0.7681 H         1 <0>         0.1418
     30 H9          6.3941    5.1771   -2.1800 H         1 <0>         0.1344
     31 H10         8.1991    6.7255   -2.8090 H         1 <0>         0.1363
     32 H11         6.5168    9.7332   -0.2911 H         1 <0>         0.1378
     33 H12         4.7002    8.1999    0.3415 H         1 <0>         0.1365
@<TRIPOS>BOND
     1    1    2 1
     2    1   22 1
     3    1   23 1
     4    1   24 1
     5    2    6 1
     6    2    3 2
     7    3    4 1
     8    3   15 1
     9    4    5 2
    10    5    6 1
    11    5    7 1
    12    7    8 1
    13    7   25 1
    14    8   13 ar
    15    8    9 ar
    16    9   10 ar
    17    9   26 1
    18   10   11 ar
    19   10   27 1
    20   11   12 ar
    21   11   28 1
    22   12   13 ar
    23   12   14 1
    24   13   29 1
    25   15   20 ar
    26   15   16 ar
    27   16   17 ar
    28   16   30 1
    29   17   18 ar
    30   17   31 1
    31   18   19 ar
    32   18   21 1
    33   19   20 ar
    34   19   32 1
    35   20   33 1
@<TRIPOS>MOLECULE
ZINC05943751
   27    28     0     0     0
SMALL
USER_CHARGES
N-[(2,3-dichlorophenyl)methyleneamino]-2,3,5,6-tetrafluoro-aniline
@<TRIPOS>ATOM
      1 C1         -0.0126    1.0758    0.0080 C.ar      1 <0>        -0.1069
      2 C2         -1.2177    1.7472    0.0173 C.ar      1 <0>        -0.0758
      3 C3         -1.2360    3.1439    0.0307 C.ar      1 <0>        -0.0333
      4 C4         -0.0306    3.8522    0.0235 C.ar      1 <0>        -0.0176
      5 C5          1.1686    3.1665    0.0084 C.ar      1 <0>        -0.0390
      6 C6          1.1772    1.7817    0.0004 C.ar      1 <0>        -0.0844
      7 Cl1         2.6674    4.0423   -0.0012 Cl        1 <0>        -0.0431
      8 Cl2        -0.0408    5.5881    0.0341 Cl        1 <0>         0.0099
      9 C7         -2.5203    3.8677    0.0469 C.2       1 <0>         0.0922
     10 N1         -2.5337    5.1661    0.0543 N.2       1 <0>        -0.1992
     11 N2         -3.7542    5.8539    0.0696 N.pl3     1 <0>        -0.5736
     12 C8         -3.7687    7.2516    0.0777 C.ar      1 <0>         0.2129
     13 C9         -2.6121    7.9586    0.3880 C.ar      1 <0>         0.0425
     14 C10        -2.6280    9.3433    0.3886 C.ar      1 <0>         0.1303
     15 C11        -3.7973   10.0239    0.0932 C.ar      1 <0>        -0.1793
     16 C12        -4.9522    9.3227   -0.2101 C.ar      1 <0>         0.1362
     17 C13        -4.9412    7.9380   -0.2189 C.ar      1 <0>         0.0187
     18 F1         -6.0681    7.2546   -0.5158 F         1 <0>        -0.1167
     19 F2         -6.0909    9.9902   -0.4982 F         1 <0>        -0.1090
     20 F3         -1.5031   10.0310    0.6836 F         1 <0>        -0.1092
     21 F4         -1.4725    7.2954    0.6821 F         1 <0>        -0.0934
     22 H1          0.0021   -0.0041    0.0020 H         1 <0>         0.1449
     23 H2         -2.1452    1.1939    0.0184 H         1 <0>         0.1444
     24 H3          2.1173    1.2502   -0.0114 H         1 <0>         0.1453
     25 H4         -3.4499    3.3180    0.0524 H         1 <0>         0.1327
     26 H5         -4.5891    5.3602    0.0746 H         1 <0>         0.4000
     27 H6         -3.8084   11.1038    0.0990 H         1 <0>         0.1709
@<TRIPOS>BOND
     1    1    6 ar
     2    1    2 ar
     3    1   22 1
     4    2    3 ar
     5    2   23 1
     6    3    4 ar
     7    3    9 1
     8    4    5 ar
     9    4    8 1
    10    5    6 ar
    11    5    7 1
    12    6   24 1
    13    9   10 2
    14    9   25 1
    15   10   11 1
    16   11   12 1
    17   11   26 1
    18   12   17 ar
    19   12   13 ar
    20   13   14 ar
    21   13   21 1
    22   14   15 ar
    23   14   20 1
    24   15   16 ar
    25   15   27 1
    26   16   17 ar
    27   16   19 1
    28   17   18 1
@<TRIPOS>MOLECULE
ZINC20477878
   42    43     0     0     0
SMALL
USER_CHARGES
N-[(1R,2S)-2-tert-butylcyclohexyl]-4-iodo-aniline
@<TRIPOS>ATOM
      1 C1         -0.4969   -0.6407   -1.9814 C.3       1 <0>        -0.1472
      2 C2         -0.0938    0.7562   -2.4581 C.3       1 <0>        -0.0563
      3 C3         -0.8738    1.1070   -3.7267 C.3       1 <0>        -0.1805
      4 C4          1.4062    0.7793   -2.7588 C.3       1 <0>        -0.1477
      5 C5         -0.4107    1.7791   -1.3653 C.3       1 <0>        -0.0794
      6 H1         -0.2292    2.7939   -1.7491 H         1 <0>         0.0740
      7 C6          0.4868    1.5244   -0.1526 C.3       1 <0>        -0.1171
      8 C7          0.1699    2.5473    0.9402 C.3       1 <0>        -0.1230
      9 C8         -1.2969    2.4135    1.3542 C.3       1 <0>        -0.1188
     10 C9         -2.1944    2.6681    0.1415 C.3       1 <0>        -0.1346
     11 C10        -1.8775    1.6452   -0.9513 C.3       1 <0>         0.1544
     12 H2         -2.0893    0.6246   -0.5999 H         1 <0>         0.0869
     13 N1         -2.7368    1.8890   -2.1124 N.pl3     1 <0>        -0.7428
     14 C11        -3.9954    1.2874   -2.1887 C.ar      1 <0>         0.2416
     15 C12        -4.4310    0.4532   -1.1670 C.ar      1 <0>        -0.2007
     16 C13        -5.6784   -0.1348   -1.2421 C.ar      1 <0>        -0.0343
     17 C14        -6.4885    0.0960   -2.3394 C.ar      1 <0>        -0.1599
     18 C15        -6.0549    0.9214   -3.3614 C.ar      1 <0>        -0.0341
     19 C16        -4.8113    1.5176   -3.2890 C.ar      1 <0>        -0.1977
     20 I1         -8.3761   -0.8056   -2.4533 I         1 <0>        -0.0582
     21 H3          0.0639   -0.8929   -1.0693 H         1 <0>         0.0556
     22 H4         -0.2691   -1.3761   -2.7670 H         1 <0>         0.0530
     23 H5         -1.5753   -0.6573   -1.7651 H         1 <0>         0.0581
     24 H6         -0.5840    2.1113   -4.0694 H         1 <0>         0.0492
     25 H7         -1.9522    1.0904   -3.5104 H         1 <0>         0.0964
     26 H8         -0.6460    0.3715   -4.5123 H         1 <0>         0.0496
     27 H9          1.6960    1.7836   -3.1015 H         1 <0>         0.0533
     28 H10         1.6340    0.0438   -3.5444 H         1 <0>         0.0537
     29 H11         1.9669    0.5271   -1.8467 H         1 <0>         0.0587
     30 H12         0.3053    0.5096    0.2312 H         1 <0>         0.0671
     31 H13         1.5414    1.6206   -0.4502 H         1 <0>         0.0717
     32 H14         0.8151    2.3642    1.8121 H         1 <0>         0.0641
     33 H15         0.3515    3.5621    0.5564 H         1 <0>         0.0621
     34 H16        -1.4784    1.3988    1.7381 H         1 <0>         0.0626
     35 H17        -1.5247    3.1489    2.1398 H         1 <0>         0.0645
     36 H18        -3.2490    2.5718    0.4392 H         1 <0>         0.0653
     37 H19        -2.0130    3.6829   -0.2424 H         1 <0>         0.0650
     38 H20        -2.3911    2.5458   -2.9243 H         1 <0>         0.4234
     39 H21        -3.7969    0.2684   -0.3125 H         1 <0>         0.1263
     40 H22        -6.0197   -0.7794   -0.4456 H         1 <0>         0.1244
     41 H23        -6.6898    1.1000   -4.2166 H         1 <0>         0.1252
     42 H24        -4.4737    2.1624   -4.0868 H         1 <0>         0.1259
@<TRIPOS>BOND
     1    1    2 1
     2    1   21 1
     3    1   22 1
     4    1   23 1
     5    2    3 1
     6    2    4 1
     7    2    5 1
     8    3   24 1
     9    3   25 1
    10    3   26 1
    11    4   27 1
    12    4   28 1
    13    4   29 1
    14    5    6 1
    15    5   11 1
    16    5    7 1
    17    7    8 1
    18    7   30 1
    19    7   31 1
    20    8    9 1
    21    8   32 1
    22    8   33 1
    23    9   10 1
    24    9   34 1
    25    9   35 1
    26   10   11 1
    27   10   36 1
    28   10   37 1
    29   11   12 1
    30   11   13 1
    31   13   14 1
    32   13   38 1
    33   14   19 ar
    34   14   15 ar
    35   15   16 ar
    36   15   39 1
    37   16   17 ar
    38   16   40 1
    39   17   18 ar
    40   17   20 1
    41   18   19 ar
    42   18   41 1
    43   19   42 1
@<TRIPOS>MOLECULE
ZINC37121673
   30    31     0     0     0
SMALL
USER_CHARGES

@<TRIPOS>ATOM
      1 C1         -0.0843    1.5234    0.0171 C.3       1 <0>        -0.1651
      2 C2          0.0021   -0.0041    0.0020 C.3       1 <0>         0.1826
      3 H1         -0.9975   -0.4234   -0.1124 H         1 <0>         0.0992
      4 C3          0.8674   -0.4470   -1.1496 C.ar      1 <0>        -0.0838
      5 C4          2.2199   -0.6579   -0.9568 C.ar      1 <0>        -0.1037
      6 C5          3.0137   -1.0641   -2.0129 C.ar      1 <0>        -0.1068
      7 C6          2.4556   -1.2598   -3.2626 C.ar      1 <0>        -0.1047
      8 C7          1.1036   -1.0492   -3.4566 C.ar      1 <0>        -0.1037
      9 C8          0.3074   -0.6480   -2.3984 C.ar      1 <0>        -0.0278
     10 Cl1        -1.3923   -0.3897   -2.6396 Cl        1 <0>        -0.0605
     11 N1          0.5871   -0.4725    1.2608 N.pl3     1 <0>        -0.7318
     12 C9         -0.2279   -0.6730    2.3780 C.ar      1 <0>         0.2541
     13 C10        -1.5934   -0.4342    2.2951 C.ar      1 <0>        -0.1673
     14 C11        -2.3966   -0.6334    3.4019 C.ar      1 <0>        -0.0256
     15 C12        -1.8415   -1.0705    4.5918 C.ar      1 <0>        -0.1462
     16 C13        -0.4823   -1.3088    4.6777 C.ar      1 <0>        -0.0335
     17 C14         0.3255   -1.1174    3.5728 C.ar      1 <0>        -0.1592
     18 Br1         2.1831   -1.4517    3.6891 Br        1 <0>        -0.0445
     19 Br2        -4.2560   -0.3079    3.2905 Br        1 <0>        -0.0387
     20 H2          0.9153    1.9427    0.1314 H         1 <0>         0.0643
     21 H3         -0.5195    1.8720   -0.9195 H         1 <0>         0.0724
     22 H4         -0.7102    1.8438    0.8500 H         1 <0>         0.0687
     23 H5          2.6565   -0.5049    0.0191 H         1 <0>         0.1274
     24 H6          4.0704   -1.2285   -1.8619 H         1 <0>         0.1330
     25 H7          3.0764   -1.5768   -4.0875 H         1 <0>         0.1357
     26 H8          0.6678   -1.2018   -4.4329 H         1 <0>         0.1378
     27 H9          1.5401   -0.6435    1.3187 H         1 <0>         0.4048
     28 H10        -2.0272   -0.0927    1.3668 H         1 <0>         0.1410
     29 H11        -2.4713   -1.2255    5.4554 H         1 <0>         0.1397
     30 H12        -0.0521   -1.6491    5.6080 H         1 <0>         0.1421
@<TRIPOS>BOND
     1    1    2 1
     2    1   20 1
     3    1   21 1
     4    1   22 1
     5    2    3 1
     6    2    4 1
     7    2   11 1
     8    4    9 ar
     9    4    5 ar
    10    5    6 ar
    11    5   23 1
    12    6    7 ar
    13    6   24 1
    14    7    8 ar
    15    7   25 1
    16    8    9 ar
    17    8   26 1
    18    9   10 1
    19   11   12 1
    20   11   27 1
    21   12   17 ar
    22   12   13 ar
    23   13   14 ar
    24   13   28 1
    25   14   15 ar
    26   14   19 1
    27   15   16 ar
    28   15   29 1
    29   16   17 ar
    30   16   30 1
    31   17   18 1
@<TRIPOS>MOLECULE
ZINC40795088
   34    35     0     0     0
SMALL
USER_CHARGES

@<TRIPOS>ATOM
      1 C1          0.7787   -0.3817   -1.1525 C.3       1 <0>        -0.1538
      2 C2          0.0129   -0.0026    0.1166 C.3       1 <0>        -0.0974
      3 C3          0.0061    1.5194    0.2727 C.3       1 <0>        -0.1484
      4 C4         -1.4265   -0.5113    0.0149 C.3       1 <0>        -0.1295
      5 C5         -1.4271   -2.0413    0.0034 C.3       1 <0>         0.1380
      6 H1         -0.7626   -2.3860   -0.7888 H         1 <0>         0.1030
      7 C6         -2.8609   -2.5370   -0.2977 C.3       1 <0>        -0.0785
      8 S1         -3.0133   -3.8633    0.9715 S.3       1 <0>        -0.1931
      9 C7         -1.7232   -3.2996    2.0722 C.2       1 <0>         0.4839
     10 N1         -0.9230   -2.5184    1.2768 N.pl3     1 <0>        -0.7123
     11 N2         -1.5767   -3.5690    3.3493 N.2       1 <0>        -0.5247
     12 C8         -2.4830   -4.3744    3.9882 C.ar      1 <0>         0.1665
     13 C9         -3.6135   -3.8179    4.5908 C.ar      1 <0>        -0.0365
     14 C10        -4.5228   -4.6351    5.2323 C.ar      1 <0>        -0.0615
     15 C11        -4.3159   -6.0030    5.2794 C.ar      1 <0>        -0.0876
     16 C12        -3.1976   -6.5611    4.6842 C.ar      1 <0>        -0.0616
     17 C13        -2.2833   -5.7560    4.0345 C.ar      1 <0>        -0.0430
     18 Cl1        -0.8852   -6.4586    3.2825 Cl        1 <0>        -0.0361
     19 Br1        -5.5661   -7.1142    6.1614 Br        1 <0>        -0.0226
     20 Cl2        -3.8743   -2.1025    4.5338 Cl        1 <0>        -0.0373
     21 H2          1.8041   -0.0193   -1.0801 H         1 <0>         0.0582
     22 H3          0.7835   -1.4660   -1.2637 H         1 <0>         0.0556
     23 H4          0.2939    0.0701   -2.0180 H         1 <0>         0.0588
     24 H5          0.4976   -0.4544    0.9821 H         1 <0>         0.0689
     25 H6         -0.3984    1.9755   -0.6309 H         1 <0>         0.0570
     26 H7         -0.6129    1.7943    1.1268 H         1 <0>         0.0552
     27 H8          1.0246    1.8727    0.4334 H         1 <0>         0.0573
     28 H9         -1.9994   -0.1542    0.8707 H         1 <0>         0.0741
     29 H10        -1.8786   -0.1409   -0.9051 H         1 <0>         0.0854
     30 H11        -3.5950   -1.7476   -0.1359 H         1 <0>         0.1145
     31 H12        -2.9358   -2.9435   -1.3063 H         1 <0>         0.1298
     32 H13        -5.3974   -4.2060    5.6987 H         1 <0>         0.1520
     33 H14        -3.0421   -7.6290    4.7247 H         1 <0>         0.1516
     34 H15        -0.0259   -2.2886    1.5653 H         1 <0>         0.4139
@<TRIPOS>BOND
     1    1    2 1
     2    1   21 1
     3    1   22 1
     4    1   23 1
     5    2    3 1
     6    2    4 1
     7    2   24 1
     8    3   25 1
     9    3   26 1
    10    3   27 1
    11    4    5 1
    12    4   28 1
    13    4   29 1
    14    5    6 1
    15    5   10 1
    16    5    7 1
    17    7    8 1
    18    7   30 1
    19    7   31 1
    20    8    9 1
    21    9   10 1
    22    9   11 2
    23   10   34 1
    24   11   12 1
    25   12   17 ar
    26   12   13 ar
    27   13   14 ar
    28   13   20 1
    29   14   15 ar
    30   14   32 1
    31   15   16 ar
    32   15   19 1
    33   16   17 ar
    34   16   33 1
    35   17   18 1
@<TRIPOS>MOLECULE
ZINC00046336
   26    27     0     0     0
SMALL
USER_CHARGES
2-[(4-bromo-3-chloro-phenyl)iminomethyl]phenol
@<TRIPOS>ATOM
      1 C1          1.1705    1.7821    0.0005 C.ar      1 <0>        -0.1384
      2 C2          1.1578    3.1674    0.0075 C.ar      1 <0>        -0.0773
      3 C3         -0.0397    3.8559    0.0222 C.ar      1 <0>        -0.1589
      4 C4         -1.2400    3.1630    0.0299 C.ar      1 <0>         0.1616
      5 C5         -1.2325    1.7598    0.0174 C.ar      1 <0>        -0.1192
      6 C6         -0.0126    1.0758    0.0080 C.ar      1 <0>        -0.0670
      7 C7         -2.4992    1.0133    0.0193 C.2       1 <0>         0.2154
      8 N1         -3.6341    1.6550    0.0282 N.2       1 <0>        -0.4644
      9 C8         -4.8131    0.9601    0.0299 C.ar      1 <0>         0.1151
     10 C9         -4.9898   -0.1237   -0.8335 C.ar      1 <0>        -0.1476
     11 C10        -6.1780   -0.8237   -0.8232 C.ar      1 <0>        -0.0608
     12 C11        -7.1996   -0.4473    0.0320 C.ar      1 <0>        -0.1010
     13 C12        -7.0336    0.6301    0.8871 C.ar      1 <0>         0.0014
     14 C13        -5.8466    1.3351    0.8908 C.ar      1 <0>        -0.0920
     15 Cl1        -8.3202    1.0941    1.9563 Cl        1 <0>        -0.0376
     16 Br1        -8.8283   -1.4082    0.0335 Br        1 <0>        -0.0245
     17 O1         -2.4170    3.8384    0.0443 O.3       1 <0>        -0.4737
     18 H1          2.1121    1.2533   -0.0114 H         1 <0>         0.1318
     19 H2          2.0901    3.7126    0.0019 H         1 <0>         0.1309
     20 H3         -0.0406    4.9359    0.0280 H         1 <0>         0.1338
     21 H4          0.0021   -0.0041    0.0020 H         1 <0>         0.1339
     22 H5         -2.4896   -0.0666    0.0134 H         1 <0>         0.1130
     23 H6         -4.1955   -0.4159   -1.5045 H         1 <0>         0.1380
     24 H7         -6.3136   -1.6645   -1.4874 H         1 <0>         0.1454
     25 H8         -5.7179    2.1749    1.5576 H         1 <0>         0.1496
     26 H9         -2.7664    4.0386   -0.8349 H         1 <0>         0.3928
@<TRIPOS>BOND
     1    1    6 ar
     2    1    2 ar
     3    1   18 1
     4    2    3 ar
     5    2   19 1
     6    3    4 ar
     7    3   20 1
     8    4    5 ar
     9    4   17 1
    10    5    6 ar
    11    5    7 1
    12    6   21 1
    13    7    8 2
    14    7   22 1
    15    8    9 1
    16    9   14 ar
    17    9   10 ar
    18   10   11 ar
    19   10   23 1
    20   11   12 ar
    21   11   24 1
    22   12   13 ar
    23   12   16 1
    24   13   14 ar
    25   13   15 1
    26   14   25 1
    27   17   26 1
@<TRIPOS>MOLECULE
ZINC24106921
   40    43     0     0     0
SMALL
USER_CHARGES
N-(2-adamantyl)-2,4-dichloro-5-fluoro-benzamide
@<TRIPOS>ATOM
      1 C1         -1.2511    3.8116    0.0350 C.ar      1 <0>        -0.1008
      2 C2         -1.2401    2.4151    0.0211 C.ar      1 <0>        -0.0942
      3 C3         -0.0215    1.7317    0.0116 C.ar      1 <0>         0.0104
      4 C4          1.1643    2.4397    0.0040 C.ar      1 <0>        -0.0823
      5 C5          1.1475    3.8234    0.0112 C.ar      1 <0>        -0.0435
      6 C6         -0.0593    4.5083    0.0265 C.ar      1 <0>         0.1106
      7 F1         -0.0679    5.8592    0.0334 F         1 <0>        -0.1156
      8 Cl1         2.6424    4.7061    0.0005 Cl        1 <0>        -0.0242
      9 Cl2         0.0021   -0.0041    0.0020 Cl        1 <0>        -0.0044
     10 C7         -2.5117    1.6635    0.0229 C.2       1 <0>         0.5556
     11 O1         -2.4993    0.4479    0.0162 O.2       1 <0>        -0.5069
     12 N1         -3.6857    2.3254    0.0321 N.am      1 <0>        -0.7283
     13 C8         -4.9468    1.5800    0.0340 C.3       1 <0>         0.1625
     14 C9         -5.3287    1.2201   -1.4033 C.3       1 <0>        -0.0943
     15 C10        -6.6458    0.4416   -1.4013 C.3       1 <0>        -0.1075
     16 C11        -7.7472    1.3042   -0.7818 C.3       1 <0>        -0.0887
     17 C12        -7.9133    2.5854   -1.6014 C.3       1 <0>        -0.1090
     18 C13        -6.5961    3.3639   -1.6033 C.3       1 <0>        -0.0876
     19 C14        -5.4948    2.5013   -2.2229 C.3       1 <0>        -0.1070
     20 C15        -6.2143    3.7238   -0.1661 C.3       1 <0>        -0.1088
     21 C16        -6.0482    2.4425    0.6535 C.3       1 <0>        -0.0918
     22 C17        -7.3653    1.6640    0.6555 C.3       1 <0>        -0.1062
     23 H1         -2.1899    4.3454    0.0476 H         1 <0>         0.1555
     24 H2          2.1066    1.9123   -0.0078 H         1 <0>         0.1623
     25 H3         -3.6969    3.4253    0.0382 H         1 <0>         0.4131
     26 H4         -4.7849    0.6706    0.6313 H         1 <0>         0.0908
     27 H5         -4.5369    0.5999   -1.8488 H         1 <0>         0.0756
     28 H6         -6.9203    0.1828   -2.4346 H         1 <0>         0.0662
     29 H7         -6.5264   -0.4795   -0.8120 H         1 <0>         0.0651
     30 H8         -8.6942    0.7446   -0.7805 H         1 <0>         0.0728
     31 H9         -8.1878    2.3266   -2.6347 H         1 <0>         0.0630
     32 H10        -8.7052    3.2056   -1.1560 H         1 <0>         0.0629
     33 H11        -6.7154    4.2851   -2.1925 H         1 <0>         0.0713
     34 H12        -4.5478    3.0610   -2.2243 H         1 <0>         0.0603
     35 H13        -5.7694    2.2426   -3.2562 H         1 <0>         0.0635
     36 H14        -5.2674    4.2835   -0.1675 H         1 <0>         0.0572
     37 H15        -7.0061    4.3440    0.2793 H         1 <0>         0.0698
     38 H16        -5.7737    2.7011    1.6868 H         1 <0>         0.0773
     39 H17        -8.1571    2.2841    1.1010 H         1 <0>         0.0690
     40 H18        -7.2459    0.7428    1.2447 H         1 <0>         0.0663
@<TRIPOS>BOND
     1    1    6 ar
     2    1    2 ar
     3    1   23 1
     4    2    3 ar
     5    2   10 1
     6    3    4 ar
     7    3    9 1
     8    4    5 ar
     9    4   24 1
    10    5    6 ar
    11    5    8 1
    12    6    7 1
    13   10   11 2
    14   10   12 am
    15   12   13 1
    16   12   25 1
    17   13   21 1
    18   13   14 1
    19   13   26 1
    20   14   19 1
    21   14   15 1
    22   14   27 1
    23   15   16 1
    24   15   28 1
    25   15   29 1
    26   16   22 1
    27   16   17 1
    28   16   30 1
    29   17   18 1
    30   17   31 1
    31   17   32 1
    32   18   19 1
    33   18   20 1
    34   18   33 1
    35   19   34 1
    36   19   35 1
    37   20   21 1
    38   20   36 1
    39   20   37 1
    40   21   22 1
    41   21   38 1
    42   22   39 1
    43   22   40 1
@<TRIPOS>MOLECULE
ZINC37103764
   35    37     0     0     0
SMALL
USER_CHARGES

@<TRIPOS>ATOM
      1 C1         -0.0187    1.5258    0.0104 C.3       1 <0>        -0.1669
      2 C2          0.0021   -0.0041    0.0020 C.3       1 <0>         0.1930
      3 H1          0.5123   -0.3556   -0.8948 H         1 <0>         0.0926
      4 C3          0.7309   -0.5033    1.2229 C.ar      1 <0>        -0.0740
      5 C4          0.0803   -0.5583    2.4417 C.ar      1 <0>        -0.0970
      6 C5          0.7477   -1.0155    3.5622 C.ar      1 <0>        -0.0931
      7 C6          2.0675   -1.4189    3.4647 C.ar      1 <0>        -0.0316
      8 C7          2.7188   -1.3642    2.2443 C.ar      1 <0>        -0.0270
      9 C8          2.0476   -0.9111    1.1226 C.ar      1 <0>        -0.0886
     10 Cl1         4.3751   -1.8693    2.1204 Cl        1 <0>        -0.0421
     11 Cl2         2.9065   -1.9927    4.8720 Cl        1 <0>        -0.0438
     12 N1         -1.3723   -0.5112    0.0124 N.pl3     1 <0>        -0.7434
     13 C9         -2.0768   -0.6478   -1.1889 C.ar      1 <0>         0.1937
     14 C10        -1.4750   -0.3093   -2.3939 C.ar      1 <0>        -0.1635
     15 C11        -2.1663   -0.4472   -3.5790 C.ar      1 <0>        -0.0879
     16 C12        -3.4740   -0.9263   -3.5790 C.ar      1 <0>         0.0478
     17 C13        -4.0704   -1.2554   -2.3689 C.ar      1 <0>        -0.1247
     18 C14        -3.3805   -1.1283   -1.1838 C.ar      1 <0>        -0.1440
     19 C15        -5.4812   -1.7172   -2.6794 C.3       1 <0>        -0.1128
     20 C16        -5.6708   -1.2144   -4.1301 C.3       1 <0>         0.0525
     21 O1         -4.3218   -1.1479   -4.6226 O.3       1 <0>        -0.3081
     22 H2          1.0039    1.9031    0.0027 H         1 <0>         0.0681
     23 H3         -0.5459    1.8868   -0.8726 H         1 <0>         0.0688
     24 H4         -0.5289    1.8773    0.9072 H         1 <0>         0.0624
     25 H5         -0.9500   -0.2436    2.5181 H         1 <0>         0.1372
     26 H6          0.2391   -1.0576    4.5140 H         1 <0>         0.1455
     27 H7          2.5539   -0.8720    0.1694 H         1 <0>         0.1455
     28 H8         -1.7940   -0.7522    0.8520 H         1 <0>         0.3987
     29 H9         -0.4615    0.0639   -2.4028 H         1 <0>         0.1304
     30 H10        -1.6913   -0.1820   -4.5120 H         1 <0>         0.1280
     31 H11        -3.8536   -1.3978   -0.2511 H         1 <0>         0.1224
     32 H12        -5.5549   -2.8037   -2.6310 H         1 <0>         0.0914
     33 H13        -6.2009   -1.2492   -2.0078 H         1 <0>         0.0910
     34 H14        -6.2595   -1.9244   -4.7110 H         1 <0>         0.1047
     35 H15        -6.1344   -0.2280   -4.1394 H         1 <0>         0.0749
@<TRIPOS>BOND
     1    1    2 1
     2    1   22 1
     3    1   23 1
     4    1   24 1
     5    2    3 1
     6    2    4 1
     7    2   12 1
     8    4    9 ar
     9    4    5 ar
    10    5    6 ar
    11    5   25 1
    12    6    7 ar
    13    6   26 1
    14    7    8 ar
    15    7   11 1
    16    8    9 ar
    17    8   10 1
    18    9   27 1
    19   12   13 1
    20   12   28 1
    21   13   18 ar
    22   13   14 ar
    23   14   15 ar
    24   14   29 1
    25   15   16 ar
    26   15   30 1
    27   16   21 1
    28   16   17 ar
    29   17   18 ar
    30   17   19 1
    31   18   31 1
    32   19   20 1
    33   19   32 1
    34   19   33 1
    35   20   21 1
    36   20   34 1
    37   20   35 1
@<TRIPOS>MOLECULE
ZINC37970073
   37    38     0     0     0
SMALL
USER_CHARGES

@<TRIPOS>ATOM
      1 C1         -0.0167    1.3789    0.0096 C.ar      1 <0>        -0.0526
      2 C2          1.1705    2.0864    0.0021 C.ar      1 <0>        -0.1466
      3 C3          2.3787    1.4107   -0.0130 C.ar      1 <0>         0.1292
      4 C4          2.3967    0.0260   -0.0206 C.ar      1 <0>        -0.1134
      5 C5          1.2091   -0.6801   -0.0130 C.ar      1 <0>        -0.0276
      6 C6          0.0021   -0.0041    0.0020 C.ar      1 <0>        -0.1066
      7 Br1        -1.6228   -0.9713    0.0129 Br        1 <0>        -0.0341
      8 C7          3.7113   -0.7106   -0.0375 C.3       1 <0>         0.2328
      9 H1          4.4339   -0.1506   -0.6312 H         1 <0>         0.1357
     10 C8          4.2122   -0.8522    1.3394 C.1       1 <0>         0.1663
     11 N1          4.5987   -0.9615    2.4020 N.1       1 <0>        -0.3989
     12 N2          3.5191   -2.0418   -0.6281 N.3       1 <0>        -0.6617
     13 C9          4.7723   -2.5485   -1.2032 C.3       1 <0>         0.0874
     14 C10         4.9575   -1.9426   -2.6094 C.3       1 <0>        -0.1050
     15 C11         6.4133   -2.0299   -2.9796 C.3       1 <0>        -0.1225
     16 C12         6.7393   -3.2959   -3.7949 C.3       1 <0>        -0.1178
     17 C13         6.0237   -4.5513   -3.2605 C.3       1 <0>        -0.1209
     18 C14         6.0341   -4.6243   -1.7575 C.3       1 <0>        -0.1122
     19 C15         4.7256   -4.0030   -1.2275 C.3       1 <0>        -0.1264
     20 F1          3.5395    2.1017   -0.0209 F         1 <0>        -0.1281
     21 H2         -0.9592    1.9059    0.0259 H         1 <0>         0.1464
     22 H3          1.1557    3.1663    0.0076 H         1 <0>         0.1499
     23 H4          1.2230   -1.7600   -0.0189 H         1 <0>         0.1501
     24 H5          3.1456   -2.6881    0.0508 H         1 <0>         0.3522
     25 H6          5.6030   -2.2326   -0.5721 H         1 <0>         0.0482
     26 H7          4.3620   -2.5024   -3.3307 H         1 <0>         0.0761
     27 H8          4.6433   -0.8988   -2.6027 H         1 <0>         0.0682
     28 H9          6.6808   -1.1526   -3.5685 H         1 <0>         0.0629
     29 H10         7.0095   -2.0349   -2.0671 H         1 <0>         0.0589
     30 H11         6.4393   -3.1342   -4.8302 H         1 <0>         0.0602
     31 H12         7.8156   -3.4655   -3.7654 H         1 <0>         0.0582
     32 H13         4.9899   -4.5419   -3.6059 H         1 <0>         0.0638
     33 H14         6.5189   -5.4364   -3.6599 H         1 <0>         0.0591
     34 H15         6.0991   -5.6656   -1.4420 H         1 <0>         0.0666
     35 H16         6.8871   -4.0674   -1.3699 H         1 <0>         0.0658
     36 H17         4.5461   -4.3673   -0.2160 H         1 <0>         0.0590
     37 H18         3.9007   -4.3190   -1.8661 H         1 <0>         0.0773
@<TRIPOS>BOND
     1    1    6 ar
     2    1    2 ar
     3    1   21 1
     4    2    3 ar
     5    2   22 1
     6    3    4 ar
     7    3   20 1
     8    4    5 ar
     9    4    8 1
    10    5    6 ar
    11    5   23 1
    12    6    7 1
    13    8    9 1
    14    8   10 1
    15    8   12 1
    16   10   11 3
    17   12   13 1
    18   12   24 1
    19   13   19 1
    20   13   14 1
    21   13   25 1
    22   14   15 1
    23   14   26 1
    24   14   27 1
    25   15   16 1
    26   15   28 1
    27   15   29 1
    28   16   17 1
    29   16   30 1
    30   16   31 1
    31   17   18 1
    32   17   32 1
    33   17   33 1
    34   18   19 1
    35   18   34 1
    36   18   35 1
    37   19   36 1
    38   19   37 1
@<TRIPOS>MOLECULE
ZINC53099219
   38    40     0     0     0
SMALL
USER_CHARGES

@<TRIPOS>ATOM
      1 C1          0.0755    1.7073    0.6493 C.3       1 <0>        -0.1480
      2 C2         -0.0298    0.2028    0.3918 C.3       1 <0>        -0.0932
      3 H1         -1.0672   -0.1129    0.5025 H         1 <0>         0.0688
      4 C3          0.4483   -0.1060   -1.0283 C.3       1 <0>        -0.1182
      5 C4          0.3431   -1.6107   -1.2845 C.3       1 <0>        -0.1223
      6 C5          1.2146   -2.3626   -0.2774 C.3       1 <0>        -0.1236
      7 C6          0.7278   -2.0577    1.1452 C.3       1 <0>         0.1711
      8 C7          0.8419   -0.5488    1.3990 C.3       1 <0>        -0.1171
      9 C8          1.6694   -2.7835    2.1400 C.3       1 <0>        -0.0821
     10 S1          0.4282   -3.4963    3.2984 S.3       1 <0>        -0.1935
     11 C9         -0.9878   -3.4334    2.2106 C.2       1 <0>         0.4639
     12 N1         -0.6582   -2.4730    1.2864 N.pl3     1 <0>        -0.7044
     13 N2         -2.0909   -4.1437    2.2789 N.2       1 <0>        -0.5173
     14 C10        -2.3024   -4.9796    3.3431 C.ar      1 <0>         0.1564
     15 C11        -2.1345   -4.5106    4.6474 C.ar      1 <0>        -0.1496
     16 C12        -2.3491   -5.3578    5.7147 C.ar      1 <0>        -0.0817
     17 C13        -2.7296   -6.6700    5.4954 C.ar      1 <0>        -0.1315
     18 C14        -2.8975   -7.1421    4.2059 C.ar      1 <0>        -0.0742
     19 C15        -2.6927   -6.3036    3.1286 C.ar      1 <0>        -0.0930
     20 Br1        -2.9316   -6.9479    1.3669 Br        1 <0>        -0.0409
     21 H2          1.1129    2.0231    0.5387 H         1 <0>         0.0569
     22 H3         -0.5459    2.2431   -0.0682 H         1 <0>         0.0573
     23 H4         -0.2654    1.9275    1.6609 H         1 <0>         0.0560
     24 H5         -0.1737    0.4292   -1.7457 H         1 <0>         0.0667
     25 H6          1.4856    0.2099   -1.1394 H         1 <0>         0.0672
     26 H7         -0.6944   -1.9263   -1.1738 H         1 <0>         0.0625
     27 H8          0.6839   -1.8317   -2.2960 H         1 <0>         0.0708
     28 H9          1.1438   -3.4342   -0.4640 H         1 <0>         0.0719
     29 H10         2.2512   -2.0426   -0.3834 H         1 <0>         0.0840
     30 H11         1.8803   -0.2382    1.2841 H         1 <0>         0.0836
     31 H12         0.5046   -0.3239    2.4108 H         1 <0>         0.0762
     32 H13         2.2422   -3.5664    1.6430 H         1 <0>         0.1119
     33 H14         2.3265   -2.0783    2.6490 H         1 <0>         0.1273
     34 H15        -1.8369   -3.4870    4.8203 H         1 <0>         0.1287
     35 H16        -2.2195   -4.9961    6.7241 H         1 <0>         0.1302
     36 H17        -2.8958   -7.3289    6.3349 H         1 <0>         0.1323
     37 H18        -3.1942   -8.1675    4.0418 H         1 <0>         0.1353
     38 H19        -1.3461   -2.0737    0.7312 H         1 <0>         0.4118
@<TRIPOS>BOND
     1    1    2 1
     2    1   21 1
     3    1   22 1
     4    1   23 1
     5    2    3 1
     6    2    8 1
     7    2    4 1
     8    4    5 1
     9    4   24 1
    10    4   25 1
    11    5    6 1
    12    5   26 1
    13    5   27 1
    14    6    7 1
    15    6   28 1
    16    6   29 1
    17    7   12 1
    18    7    8 1
    19    7    9 1
    20    8   30 1
    21    8   31 1
    22    9   10 1
    23    9   32 1
    24    9   33 1
    25   10   11 1
    26   11   12 1
    27   11   13 2
    28   12   38 1
    29   13   14 1
    30   14   19 ar
    31   14   15 ar
    32   15   16 ar
    33   15   34 1
    34   16   17 ar
    35   16   35 1
    36   17   18 ar
    37   17   36 1
    38   18   19 ar
    39   18   37 1
    40   19   20 1
@<TRIPOS>MOLECULE
ZINC00140597
   50    54     0     0     0
SMALL
USER_CHARGES
1-cyclohex-3-enyl-methyl-BLAHone
@<TRIPOS>ATOM
      1 C1          1.4680   -3.5006   -1.8006 C.3       1 <0>        -0.1071
      2 C2          1.0828   -2.0958   -1.4143 C.ar      1 <0>         0.1469
      3 C3         -0.2438   -1.8220   -1.0877 C.ar      1 <0>        -0.1633
      4 C4         -0.6108   -0.5550   -0.7339 C.ar      1 <0>        -0.0979
      5 C5          0.3828    0.4428   -0.7119 C.ar      1 <0>        -0.0617
      6 C6          1.7121    0.0968   -1.0594 C.ar      1 <0>         0.1061
      7 N1          2.0046   -1.1641   -1.3949 N.ar      1 <0>        -0.4689
      8 C7          2.7074    1.0900   -1.0453 C.ar      1 <0>        -0.0622
      9 C8          2.3883    2.3643   -0.6981 C.ar      1 <0>        -0.1307
     10 C9          1.0768    2.7121   -0.3489 C.ar      1 <0>         0.1729
     11 C10         0.0769    1.7654   -0.3512 C.ar      1 <0>        -0.1059
     12 C11        -1.3271    2.1329    0.0324 C.3       1 <0>         0.0248
     13 H1         -1.5201    1.7889    1.0486 H         1 <0>         0.0807
     14 C12        -1.5474    3.6220   -0.0335 C.2       1 <0>        -0.2021
     15 C13        -0.5073    4.4845   -0.0319 C.2       1 <0>         0.1626
     16 N2          0.7786    4.0284    0.0039 N.pl3     1 <0>        -0.6490
     17 C14        -0.7344    5.9764   -0.0639 C.3       1 <0>        -0.0838
     18 C15        -2.0186    6.2850   -0.8364 C.3       1 <0>        -0.1158
     19 C16        -3.1814    5.5578   -0.1531 C.3       1 <0>        -0.1102
     20 C17        -2.8716    4.0878   -0.0903 C.2       1 <0>        -0.0196
     21 O1         -3.7852    3.2863   -0.0883 O.2       1 <0>        -0.2222
     22 C18        -2.3030    1.4408   -0.9213 C.3       1 <0>        -0.0991
     23 H2         -2.3930    0.3881   -0.6531 H         1 <0>         0.1085
     24 C19        -3.6778    2.1152   -0.8311 C.3       1 <0>        -0.1201
     25 C20        -4.6728    1.3004   -1.6590 C.3       1 <0>        -0.1302
     26 C21        -4.1091    1.0184   -3.0209 C.2       1 <0>        -0.1560
     27 C22        -2.8555    1.1289   -3.3240 C.2       1 <0>        -0.1573
     28 C23        -1.7921    1.5636   -2.3585 C.3       1 <0>        -0.0867
     29 H3          1.3632   -3.6227   -2.8786 H         1 <0>         0.0793
     30 H4          2.5030   -3.6856   -1.5130 H         1 <0>         0.0776
     31 H5          0.8166   -4.2095   -1.2896 H         1 <0>         0.0760
     32 H6         -0.9810   -2.6107   -1.1147 H         1 <0>         0.1359
     33 H7         -1.6344   -0.3248   -0.4777 H         1 <0>         0.1741
     34 H8          3.7242    0.8403   -1.3105 H         1 <0>         0.1399
     35 H9          3.1583    3.1216   -0.6917 H         1 <0>         0.1331
     36 H10         1.4923    4.6255    0.2778 H         1 <0>         0.4102
     37 H11        -0.8253    6.3514    0.9555 H         1 <0>         0.0870
     38 H12         0.1095    6.4614   -0.5544 H         1 <0>         0.0768
     39 H13        -1.9211    5.9364   -1.8645 H         1 <0>         0.0642
     40 H14        -2.2023    7.3594   -0.8286 H         1 <0>         0.0718
     41 H15        -4.0202    5.7041   -0.6775 H         1 <0>         0.0657
     42 H16        -3.3115    5.9465    0.8569 H         1 <0>         0.0810
     43 H17        -4.0024    2.1478    0.2090 H         1 <0>         0.1822
     44 H18        -3.6164    3.1273   -1.2309 H         1 <0>         0.2071
     45 H19        -5.6025    1.8601   -1.7616 H         1 <0>         0.0676
     46 H20        -4.8727    0.3583   -1.1485 H         1 <0>         0.0768
     47 H21        -4.7918    0.7041   -3.7964 H         1 <0>         0.0967
     48 H22        -2.5563    0.8939   -4.3348 H         1 <0>         0.0982
     49 H23        -1.5240    2.6009   -2.5592 H         1 <0>         0.0698
     50 H24        -0.9111    0.9341   -2.4838 H         1 <0>         0.0763
@<TRIPOS>BOND
     1    1    2 1
     2    1   29 1
     3    1   30 1
     4    1   31 1
     5    2    7 ar
     6    2    3 ar
     7    3    4 ar
     8    3   32 1
     9    4    5 ar
    10    4   33 1
    11    5   11 ar
    12    5    6 ar
    13    6    7 ar
    14    6    8 ar
    15    8    9 ar
    16    8   34 1
    17    9   10 ar
    18    9   35 1
    19   10   16 1
    20   10   11 ar
    21   11   12 1
    22   12   13 1
    23   12   14 1
    24   12   22 1
    25   14   20 1
    26   14   15 2
    27   15   16 1
    28   15   17 1
    29   16   36 1
    30   17   18 1
    31   17   37 1
    32   17   38 1
    33   18   19 1
    34   18   39 1
    35   18   40 1
    36   19   20 1
    37   19   41 1
    38   19   42 1
    39   20   21 2
    40   22   23 1
    41   22   28 1
    42   22   24 1
    43   24   25 1
    44   24   43 1
    45   24   44 1
    46   25   26 1
    47   25   45 1
    48   25   46 1
    49   26   27 2
    50   26   47 1
    51   27   28 1
    52   27   48 1
    53   28   49 1
    54   28   50 1
@<TRIPOS>MOLECULE
ZINC13401057
   60    63     0     0     0
SMALL
USER_CHARGES
(5S,8R,9R,10R,13R,14R)-3,3-dimethoxy-10,13-dimethyl-2,4,5,6,7,8,9,11,12,15,16,17-dodecahydro-1H-cyclopenta[a]phenanthren-14-ol
@<TRIPOS>ATOM
      1 C1         -3.1093    2.1365   -1.5512 C.3       1 <0>        -0.1405
      2 C2         -2.5025    0.9805   -0.7537 C.3       1 <0>        -0.0847
      3 C3         -2.5220    1.2600    0.7734 C.3       1 <0>        -0.1273
      4 C4         -1.2493    0.6032    1.3513 C.3       1 <0>        -0.1296
      5 C5         -0.4887   -0.0048    0.1501 C.3       1 <0>        -0.1535
      6 C6         -1.0023    0.8090   -1.0520 C.3       1 <0>         0.1509
      7 C7         -0.7288    0.1272   -2.3735 C.3       1 <0>        -0.0575
      8 H1          0.3402   -0.0695   -2.4548 H         1 <0>         0.0721
      9 C8         -1.1386    1.0434   -3.5294 C.3       1 <0>        -0.1184
     10 C9         -0.8260    0.3621   -4.8625 C.3       1 <0>        -0.1302
     11 C10        -1.6107   -0.9483   -4.9571 C.3       1 <0>        -0.0682
     12 H2         -2.6778   -0.7389   -4.8827 H         1 <0>         0.0726
     13 C11        -1.3163   -1.6257   -6.2964 C.3       1 <0>        -0.1280
     14 C12         0.1809   -1.9228   -6.4007 C.3       1 <0>         0.2709
     15 C13         0.5968   -2.8504   -5.2571 C.3       1 <0>        -0.1298
     16 C14         0.3054   -2.1703   -3.9180 C.3       1 <0>        -0.1063
     17 C15        -1.1915   -1.8734   -3.8112 C.3       1 <0>        -0.0453
     18 C16        -1.4846   -1.1970   -2.4734 C.3       1 <0>        -0.0645
     19 H3         -1.1776   -1.8533   -1.6590 H         1 <0>         0.0707
     20 C17        -2.9835   -0.9036   -2.3561 C.3       1 <0>        -0.1230
     21 C18        -3.2558   -0.3345   -0.9660 C.3       1 <0>        -0.1044
     22 C19        -1.9747   -3.1847   -3.9004 C.3       1 <0>        -0.1512
     23 O1          0.4549   -2.5564   -7.6519 O.3       1 <0>        -0.3973
     24 C20         0.1109   -1.7657   -8.7914 C.3       1 <0>         0.0287
     25 O2          0.9163   -0.7005   -6.3144 O.3       1 <0>        -0.3758
     26 C21         2.3229   -0.8531   -6.5149 C.3       1 <0>         0.0203
     27 O3         -0.3729    2.0919   -1.0557 O.3       1 <0>        -0.5523
     28 H4         -3.3019    1.8110   -2.5735 H         1 <0>         0.0658
     29 H5         -4.0451    2.4469   -1.0863 H         1 <0>         0.0508
     30 H6         -2.4133    2.9753   -1.5621 H         1 <0>         0.0659
     31 H7         -2.5051    2.3341    0.9578 H         1 <0>         0.0638
     32 H8         -3.4098    0.8161    1.2240 H         1 <0>         0.0678
     33 H9         -1.5190   -0.1813    2.0584 H         1 <0>         0.0654
     34 H10        -0.6309    1.3538    1.8437 H         1 <0>         0.0641
     35 H11        -0.7359   -1.0600    0.0333 H         1 <0>         0.0766
     36 H12         0.5867    0.1254    0.2707 H         1 <0>         0.0726
     37 H13        -2.2075    1.2481   -3.4685 H         1 <0>         0.0692
     38 H14        -0.5862    1.9807   -3.4627 H         1 <0>         0.0669
     39 H15        -1.1143    1.0189   -5.6832 H         1 <0>         0.0541
     40 H16         0.2420    0.1523   -4.9223 H         1 <0>         0.1052
     41 H17        -1.8771   -2.5580   -6.3628 H         1 <0>         0.0847
     42 H18        -1.6129   -0.9647   -7.1107 H         1 <0>         0.0718
     43 H19         0.0342   -3.7817   -5.3218 H         1 <0>         0.0819
     44 H20         1.6631   -3.0639   -5.3319 H         1 <0>         0.0718
     45 H21         0.6028   -2.8303   -3.1031 H         1 <0>         0.0665
     46 H22         0.8671   -1.2384   -3.8540 H         1 <0>         0.0777
     47 H23        -3.5496   -1.8250   -2.4929 H         1 <0>         0.0666
     48 H24        -3.2756   -0.1768   -3.1140 H         1 <0>         0.0717
     49 H25        -2.9348   -1.0561   -0.2147 H         1 <0>         0.0626
     50 H26        -4.3254   -0.1561   -0.8555 H         1 <0>         0.0612
     51 H27        -3.0419   -2.9764   -3.8241 H         1 <0>         0.0590
     52 H28        -1.7663   -3.6683   -4.8548 H         1 <0>         0.0598
     53 H29        -1.6740   -3.8437   -3.0859 H         1 <0>         0.0551
     54 H30         0.5861   -0.7880   -8.7121 H         1 <0>         0.0500
     55 H31         0.4555   -2.2647   -9.6972 H         1 <0>         0.0837
     56 H32        -0.9711   -1.6415   -8.8342 H         1 <0>         0.0442
     57 H33         2.7210   -1.5523   -5.7795 H         1 <0>         0.0446
     58 H34         2.5074   -1.2370   -7.5182 H         1 <0>         0.0458
     59 H35         2.8133    0.1135   -6.3998 H         1 <0>         0.0841
     60 H36        -0.5338    2.6112   -0.2560 H         1 <0>         0.3706
@<TRIPOS>BOND
     1    1    2 1
     2    1   28 1
     3    1   29 1
     4    1   30 1
     5    2    6 1
     6    2   21 1
     7    2    3 1
     8    3    4 1
     9    3   31 1
    10    3   32 1
    11    4    5 1
    12    4   33 1
    13    4   34 1
    14    5    6 1
    15    5   35 1
    16    5   36 1
    17    6    7 1
    18    6   27 1
    19    7    8 1
    20    7   18 1
    21    7    9 1
    22    9   10 1
    23    9   37 1
    24    9   38 1
    25   10   11 1
    26   10   39 1
    27   10   40 1
    28   11   12 1
    29   11   17 1
    30   11   13 1
    31   13   14 1
    32   13   41 1
    33   13   42 1
    34   14   15 1
    35   14   23 1
    36   14   25 1
    37   15   16 1
    38   15   43 1
    39   15   44 1
    40   16   17 1
    41   16   45 1
    42   16   46 1
    43   17   18 1
    44   17   22 1
    45   18   19 1
    46   18   20 1
    47   20   21 1
    48   20   47 1
    49   20   48 1
    50   21   49 1
    51   21   50 1
    52   22   51 1
    53   22   52 1
    54   22   53 1
    55   23   24 1
    56   24   54 1
    57   24   55 1
    58   24   56 1
    59   25   26 1
    60   26   57 1
    61   26   58 1
    62   26   59 1
    63   27   60 1
@<TRIPOS>MOLECULE
ZINC31919984
   35    37     0     0     0
SMALL
USER_CHARGES
(1R)-1-[2-(4-bromophenyl)-8-methyl-imidazo[1,2-a]pyridin-3-yl]ethanol
@<TRIPOS>ATOM
      1 C1         -1.2743    2.6013   -0.0871 C.3       1 <0>        -0.1044
      2 C2         -0.0088    1.7965   -0.2353 C.2       1 <0>        -0.0477
      3 C3         -0.0630    0.4397   -0.3128 C.2       1 <0>        -0.1047
      4 C4          1.1243   -0.2972   -0.4566 C.2       1 <0>        -0.1395
      5 C5          2.3149    0.3350   -0.5175 C.2       1 <0>         0.0612
      6 N1          2.3844    1.6964   -0.4406 N.pl3     1 <0>        -0.3425
      7 C6          1.2426    2.4431   -0.3008 C.2       1 <0>         0.2327
      8 N2          1.5855    3.7217   -0.2511 N.2       1 <0>        -0.4728
      9 C7          2.9199    3.8232   -0.3558 C.2       1 <0>         0.1006
     10 C8          3.4364    2.5683   -0.4749 C.2       1 <0>        -0.0385
     11 C9          4.8929    2.2092   -0.6182 C.3       1 <0>         0.1886
     12 H1          5.4777    3.0903   -0.9209 H         1 <0>         0.0827
     13 C10         5.4034    1.6155    0.6963 C.3       1 <0>        -0.1851
     14 O1          5.0461    1.2493   -1.6657 O.3       1 <0>        -0.6007
     15 C11         3.6991    5.0862   -0.3437 C.ar      1 <0>         0.0080
     16 C12         4.8867    5.1680    0.3805 C.ar      1 <0>        -0.1035
     17 C13         5.6103    6.3431    0.3842 C.ar      1 <0>        -0.0885
     18 C14         5.1526    7.4427   -0.3209 C.ar      1 <0>        -0.0868
     19 C15         3.9708    7.3681   -1.0375 C.ar      1 <0>        -0.0883
     20 C16         3.2425    6.1960   -1.0519 C.ar      1 <0>        -0.0814
     21 Br1         6.1448    9.0524   -0.3045 Br        1 <0>        -0.0474
     22 H2         -2.1390    1.9222   -0.0549 H         1 <0>         0.0733
     23 H3         -1.3765    3.2848   -0.9429 H         1 <0>         0.0778
     24 H4         -1.2310    3.1843    0.8447 H         1 <0>         0.0778
     25 H5         -1.0145   -0.0689   -0.2636 H         1 <0>         0.1443
     26 H6          1.0841   -1.3747   -0.5184 H         1 <0>         0.1528
     27 H7          3.2215   -0.2414   -0.6279 H         1 <0>         0.1656
     28 H8          6.4666    1.3534    0.5918 H         1 <0>         0.0715
     29 H9          4.8251    0.7119    0.9395 H         1 <0>         0.0625
     30 H10         5.2855    2.3544    1.5026 H         1 <0>         0.0709
     31 H11         6.0456    0.8654   -1.9180 H         1 <0>         0.4162
     32 H12         5.2424    4.3119    0.9346 H         1 <0>         0.1329
     33 H13         6.5330    6.4062    0.9419 H         1 <0>         0.1375
     34 H14         3.6178    8.2289   -1.5861 H         1 <0>         0.1376
     35 H15         2.3202    6.1391   -1.6108 H         1 <0>         0.1371
@<TRIPOS>BOND
     1    1    2 1
     2    1   22 1
     3    1   23 1
     4    1   24 1
     5    2    7 1
     6    2    3 2
     7    3    4 1
     8    3   25 1
     9    4    5 2
    10    4   26 1
    11    5    6 1
    12    5   27 1
    13    6   10 1
    14    6    7 1
    15    7    8 2
    16    8    9 1
    17    9   10 2
    18    9   15 1
    19   10   11 1
    20   11   12 1
    21   11   13 1
    22   11   14 1
    23   13   28 1
    24   13   29 1
    25   13   30 1
    26   14   31 1
    27   15   20 ar
    28   15   16 ar
    29   16   17 ar
    30   16   32 1
    31   17   18 ar
    32   17   33 1
    33   18   19 ar
    34   18   21 1
    35   19   20 ar
    36   19   34 1
    37   20   35 1
@<TRIPOS>MOLECULE
ZINC39336814
   36    39     0     0     0
SMALL
USER_CHARGES

@<TRIPOS>ATOM
      1 C1          0.2911    1.2697   -1.6417 C.ar      1 <0>        -0.1253
      2 C2          1.1061    1.9363   -0.7452 C.ar      1 <0>        -0.0977
      3 C3          2.2109    1.3028   -0.2109 C.ar      1 <0>        -0.1415
      4 C4          2.5029   -0.0056   -0.5750 C.ar      1 <0>         0.1353
      5 C5          1.6821   -0.6723   -1.4758 C.ar      1 <0>        -0.1056
      6 C6          0.5790   -0.0329   -2.0062 C.ar      1 <0>        -0.0930
      7 N1          3.6204   -0.6496   -0.0365 N.pl3     1 <0>        -0.6178
      8 C7          3.6436   -2.0190    0.0595 C.2       1 <0>         0.5164
      9 N2          2.5258   -2.7133    0.0632 N.2       1 <0>        -0.5652
     10 C8          2.5023   -4.0460    0.1551 C.2       1 <0>         0.4537
     11 S1          0.9875   -4.8432    0.1337 S.2       1 <0>        -0.3905
     12 N3          3.6157   -4.7848    0.2629 N.2       1 <0>        -0.4827
     13 C9          4.7954   -4.2259    0.2744 C.2       1 <0>         0.2579
     14 C10         4.9383   -2.7572    0.1561 C.2       1 <0>        -0.2454
     15 C11         6.1822   -2.2477    0.1000 C.2       1 <0>         0.0480
     16 C12         6.4906   -0.7943   -0.2507 C.3       1 <0>        -0.1028
     17 C13         7.4709   -0.8221   -1.4310 C.3       1 <0>        -0.1194
     18 C14         8.6729   -1.7036   -1.0991 C.3       1 <0>        -0.1232
     19 C15         8.2401   -3.1575   -0.8878 C.3       1 <0>        -0.1027
     20 C16         7.3299   -3.2218    0.3414 C.3       1 <0>        -0.0659
     21 H1          7.8701   -3.0047    1.2629 H         1 <0>         0.1651
     22 S2          6.4587   -4.8325    0.4065 S.3       1 <0>         0.0230
     23 H2         -0.5747    1.7659   -2.0546 H         1 <0>         0.1275
     24 H3          0.8787    2.9537   -0.4629 H         1 <0>         0.1301
     25 H4          2.8472    1.8241    0.4889 H         1 <0>         0.1264
     26 H5          1.9065   -1.6894   -1.7612 H         1 <0>         0.1295
     27 H6         -0.0598   -0.5508   -2.7063 H         1 <0>         0.1298
     28 H7          4.3796   -0.1290    0.2693 H         1 <0>         0.4239
     29 H8          5.5748   -0.2781   -0.5389 H         1 <0>         0.0910
     30 H9          6.9487   -0.2943    0.6026 H         1 <0>         0.1141
     31 H10         6.9649   -1.2183   -2.3114 H         1 <0>         0.0734
     32 H11         7.8133    0.1914   -1.6398 H         1 <0>         0.0889
     33 H12         9.3885   -1.6582   -1.9200 H         1 <0>         0.0860
     34 H13         9.1477   -1.3351   -0.1898 H         1 <0>         0.0763
     35 H14         7.6961   -3.5086   -1.7647 H         1 <0>         0.0858
     36 H15         9.1191   -3.7812   -0.7253 H         1 <0>         0.0963
@<TRIPOS>BOND
     1    1    6 ar
     2    1    2 ar
     3    1   23 1
     4    2    3 ar
     5    2   24 1
     6    3    4 ar
     7    3   25 1
     8    4    5 ar
     9    4    7 1
    10    5    6 ar
    11    5   26 1
    12    6   27 1
    13    7    8 1
    14    7   28 1
    15    8   14 1
    16    8    9 2
    17    9   10 1
    18   10   11 2
    19   10   12 1
    20   12   13 2
    21   13   22 1
    22   13   14 1
    23   14   15 2
    24   15   20 1
    25   15   16 1
    26   16   17 1
    27   16   29 1
    28   16   30 1
    29   17   18 1
    30   17   31 1
    31   17   32 1
    32   18   19 1
    33   18   33 1
    34   18   34 1
    35   19   20 1
    36   19   35 1
    37   19   36 1
    38   20   21 1
    39   20   22 1
@<TRIPOS>MOLECULE
ZINC55503741
   35    38     0     0     0
SMALL
USER_CHARGES

@<TRIPOS>ATOM
      1 C1         -0.0184    1.5028    0.0103 C.3       1 <0>        -0.1187
      2 C2          0.0021   -0.0041    0.0020 C.ar      1 <0>        -0.1215
      3 C3          0.0058   -0.6856   -1.1965 C.ar      1 <0>        -0.0215
      4 C4          0.0252   -2.0819   -1.2027 C.ar      1 <0>        -0.0856
      5 C5          0.0407   -2.7804    0.0069 C.ar      1 <0>        -0.0639
      6 C6          0.0369   -2.0887    1.1992 C.ar      1 <0>        -0.1486
      7 C7          0.0229   -0.7022    1.1993 C.ar      1 <0>         0.1333
      8 F1          0.0244   -0.0293    2.3708 F         1 <0>        -0.1262
      9 C8          0.0287   -2.8174   -2.4833 C.2       1 <0>         0.4629
     10 N1          0.0421   -4.1850   -2.4751 N.am      1 <0>        -0.6346
     11 H1          0.0488   -4.6560   -1.6272 H         1 <0>         0.4203
     12 C9          0.0458   -4.8893   -3.6225 C.2       1 <0>         0.5595
     13 O1          0.0572   -6.1080   -3.6014 O.2       1 <0>        -0.5163
     14 C10         0.0355   -4.1822   -4.8693 C.2       1 <0>        -0.2563
     15 C11         0.0407   -4.7545   -6.2263 C.2       1 <0>        -0.0336
     16 C12         0.0239   -3.8779   -7.2438 C.2       1 <0>        -0.1787
     17 S1          0.0113   -2.2711   -6.4785 S.3       1 <0>         0.1628
     18 C13         0.0214   -2.7839   -4.7816 C.2       1 <0>         0.1182
     19 N2          0.0135   -2.1473   -3.6166 N.2       1 <0>        -0.4813
     20 C14         0.0075   -4.1140   -8.7300 C.3       1 <0>        -0.0021
     21 S2          0.4768   -5.8449   -9.0399 S.3       1 <0>        -0.2317
     22 C15        -0.4486   -6.7181   -7.7380 C.3       1 <0>        -0.0829
     23 C16         0.0763   -6.2699   -6.3811 C.3       1 <0>        -0.0670
     24 H2          1.0042    1.8801    0.0026 H         1 <0>         0.0806
     25 H3         -0.5455    1.8639   -0.8728 H         1 <0>         0.0792
     26 H4         -0.5286    1.8543    0.9071 H         1 <0>         0.0748
     27 H5         -0.0067   -0.1406   -2.1289 H         1 <0>         0.1561
     28 H6          0.0554   -3.8603    0.0080 H         1 <0>         0.1369
     29 H7          0.0489   -2.6277    2.1350 H         1 <0>         0.1496
     30 H8         -0.9933   -3.9293   -9.1202 H         1 <0>         0.1089
     31 H9          0.7204   -3.4476   -9.2156 H         1 <0>         0.1244
     32 H10        -1.5084   -6.4764   -7.8180 H         1 <0>         0.0892
     33 H11        -0.3073   -7.7934   -7.8475 H         1 <0>         0.1173
     34 H12         1.1045   -6.6134   -6.2679 H         1 <0>         0.0928
     35 H13        -0.5342   -6.7204   -5.5986 H         1 <0>         0.1037
@<TRIPOS>BOND
     1    1    2 1
     2    1   24 1
     3    1   25 1
     4    1   26 1
     5    2    7 ar
     6    2    3 ar
     7    3    4 ar
     8    3   27 1
     9    4    5 ar
    10    4    9 1
    11    5    6 ar
    12    5   28 1
    13    6    7 ar
    14    6   29 1
    15    7    8 1
    16    9   19 2
    17    9   10 1
    18   10   11 1
    19   10   12 am
    20   12   13 2
    21   12   14 1
    22   14   18 2
    23   14   15 1
    24   15   23 1
    25   15   16 2
    26   16   17 1
    27   16   20 1
    28   17   18 1
    29   18   19 1
    30   20   21 1
    31   20   30 1
    32   20   31 1
    33   21   22 1
    34   22   23 1
    35   22   32 1
    36   22   33 1
    37   23   34 1
    38   23   35 1
@<TRIPOS>MOLECULE
ZINC01257545
   26    27     0     0     0
SMALL
USER_CHARGES
4-(o-tolyl)benzonitrile
@<TRIPOS>ATOM
      1 C1         -0.4755    3.4814    1.9563 C.3       1 <0>        -0.1221
      2 C2         -1.5418    3.1227    0.9536 C.ar      1 <0>        -0.0668
      3 C3         -2.7472    3.7951    0.9557 C.ar      1 <0>        -0.1206
      4 C4         -3.7288    3.4634    0.0395 C.ar      1 <0>        -0.1090
      5 C5         -3.5073    2.4597   -0.8867 C.ar      1 <0>        -0.1251
      6 C6         -2.3046    1.7836   -0.9011 C.ar      1 <0>        -0.0981
      7 C7         -1.3113    2.1140    0.0198 C.ar      1 <0>        -0.0629
      8 C8         -0.0168    1.3908    0.0097 C.ar      1 <0>        -0.0114
      9 C9          1.1809    2.1060    0.0021 C.ar      1 <0>        -0.1078
     10 C10         2.3833    1.4359   -0.0131 C.ar      1 <0>        -0.0681
     11 C11         2.4037    0.0385   -0.0212 C.ar      1 <0>        -0.0287
     12 C12         1.2030   -0.6767   -0.0136 C.ar      1 <0>        -0.0669
     13 C13         0.0021   -0.0041    0.0020 C.ar      1 <0>        -0.1085
     14 C14         3.6538   -0.6598   -0.0379 C.1       1 <0>         0.2502
     15 N1          4.6454   -1.2139   -0.0512 N.1       1 <0>        -0.4123
     16 H1          0.1640    4.2614    1.5432 H         1 <0>         0.0738
     17 H2         -0.9442    3.8427    2.8716 H         1 <0>         0.0683
     18 H3          0.1250    2.5994    2.1792 H         1 <0>         0.0717
     19 H4         -2.9255    4.5794    1.6764 H         1 <0>         0.1253
     20 H5         -4.6718    3.9896    0.0473 H         1 <0>         0.1241
     21 H6         -4.2775    2.2046   -1.5996 H         1 <0>         0.1253
     22 H7         -2.1328    1.0003   -1.6245 H         1 <0>         0.1259
     23 H8          1.1649    3.1859    0.0081 H         1 <0>         0.1364
     24 H9          3.3104    1.9898   -0.0186 H         1 <0>         0.1358
     25 H10         1.2174   -1.7566   -0.0195 H         1 <0>         0.1357
     26 H11        -0.9259   -0.5565    0.0079 H         1 <0>         0.1358
@<TRIPOS>BOND
     1    1    2 1
     2    1   16 1
     3    1   17 1
     4    1   18 1
     5    2    7 ar
     6    2    3 ar
     7    3    4 ar
     8    3   19 1
     9    4    5 ar
    10    4   20 1
    11    5    6 ar
    12    5   21 1
    13    6    7 ar
    14    6   22 1
    15    7    8 1
    16    8   13 ar
    17    8    9 ar
    18    9   10 ar
    19    9   23 1
    20   10   11 ar
    21   10   24 1
    22   11   12 ar
    23   11   14 1
    24   12   13 ar
    25   12   25 1
    26   13   26 1
    27   14   15 3
@<TRIPOS>MOLECULE
ZINC37470920
   24    24     0     0     0
SMALL
USER_CHARGES

@<TRIPOS>ATOM
      1 C1         -0.0184    1.5028    0.0103 C.3       1 <0>        -0.1138
      2 C2          0.0021   -0.0041    0.0020 C.ar      1 <0>        -0.1068
      3 C3          0.0057   -0.6868   -1.2020 C.ar      1 <0>        -0.0680
      4 C4          0.0239   -2.0685   -1.2212 C.ar      1 <0>        -0.1857
      5 C5          0.0387   -2.7794   -0.0321 C.ar      1 <0>         0.1245
      6 C6          0.0356   -2.0925    1.1878 C.ar      1 <0>        -0.0032
      7 C7          0.0228   -0.6975    1.1944 C.ar      1 <0>        -0.0600
      8 C8          0.0504   -2.8180    2.4223 C.1       1 <0>        -0.0886
      9 C9          0.0625   -3.4128    3.4344 C.1       1 <0>        -0.1816
     10 C10         0.0778   -4.1585    4.7035 C.3       1 <0>         0.0848
     11 Cl1         0.0694   -2.9976    6.0829 Cl        1 <0>        -0.1603
     12 O1          0.0557   -4.1375   -0.0498 O.3       1 <0>        -0.3147
     13 C11         0.0574   -4.7697   -1.3313 C.3       1 <0>         0.4113
     14 F1         -1.0931   -4.3989   -2.0356 F         1 <0>        -0.1961
     15 F2          1.1912   -4.3702   -2.0469 F         1 <0>        -0.1964
     16 H1          1.0042    1.8801    0.0026 H         1 <0>         0.0739
     17 H2         -0.5455    1.8639   -0.8728 H         1 <0>         0.0704
     18 H3         -0.5286    1.8543    0.9071 H         1 <0>         0.0698
     19 H4         -0.0062   -0.1368   -2.1314 H         1 <0>         0.1352
     20 H5          0.0262   -2.5949   -2.1642 H         1 <0>         0.1404
     21 H6          0.0244   -0.1611    2.1319 H         1 <0>         0.1391
     22 H7         -0.8040   -4.7968    4.7604 H         1 <0>         0.1204
     23 H8          0.9758   -4.7743    4.7523 H         1 <0>         0.1202
     24 H9          0.0716   -5.8519   -1.2026 H         1 <0>         0.1849
@<TRIPOS>BOND
     1    1    2 1
     2    1   16 1
     3    1   17 1
     4    1   18 1
     5    2    7 ar
     6    2    3 ar
     7    3    4 ar
     8    3   19 1
     9    4    5 ar
    10    4   20 1
    11    5    6 ar
    12    5   12 1
    13    6    7 ar
    14    6    8 1
    15    7   21 1
    16    8    9 3
    17    9   10 1
    18   10   11 1
    19   10   22 1
    20   10   23 1
    21   12   13 1
    22   13   14 1
    23   13   15 1
    24   13   24 1
@<TRIPOS>MOLECULE
ZINC39101257
   39    40     0     0     0
SMALL
USER_CHARGES

@<TRIPOS>ATOM
      1 C1         -0.0187    1.5258    0.0104 C.3       1 <0>        -0.1551
      2 C2          0.0021   -0.0041    0.0020 C.3       1 <0>        -0.1269
      3 C3         -1.4333   -0.5336    0.0129 C.3       1 <0>        -0.0735
      4 H1         -1.9726   -0.1124    0.8613 H         1 <0>         0.0720
      5 C4         -2.1361   -0.1414   -1.2893 C.3       1 <0>        -0.0762
      6 C5         -3.4349   -0.8810   -1.4202 C.2       1 <0>        -0.1314
      7 C6         -3.7428   -1.9404   -0.7435 C.2       1 <0>        -0.1551
      8 C7         -2.8443   -2.5738    0.2794 C.3       1 <0>        -0.0646
      9 C8         -1.4173   -2.0592    0.1203 C.3       1 <0>        -0.0513
     10 C9         -0.7801   -2.6650   -1.1427 C.3       1 <0>        -0.1151
     11 C10         0.6986   -2.9011   -0.7433 C.3       1 <0>        -0.1285
     12 C11         0.5864   -3.3593    0.7325 C.3       1 <0>        -0.1456
     13 C12        -0.5539   -2.4950    1.3119 C.3       1 <0>         0.0879
     14 H2         -0.1415   -1.6201    1.8146 H         1 <0>         0.0699
     15 O1         -1.3353   -3.2645    2.2280 O.3       1 <0>        -0.3782
     16 C13        -0.9143   -3.1513    3.5888 C.3       1 <0>         0.0290
     17 C14        -4.4480   -0.3553   -2.4042 C.3       1 <0>        -0.1220
     18 H3          1.0039    1.9031    0.0027 H         1 <0>         0.0534
     19 H4         -0.5459    1.8868   -0.8726 H         1 <0>         0.0563
     20 H5         -0.5289    1.8773    0.9072 H         1 <0>         0.0526
     21 H6          0.5123   -0.3556   -0.8948 H         1 <0>         0.0695
     22 H7          0.5293   -0.3651    0.8851 H         1 <0>         0.0641
     23 H8         -2.3301    0.9312   -1.2860 H         1 <0>         0.0717
     24 H9         -1.4936   -0.3874   -2.1347 H         1 <0>         0.0761
     25 H10        -4.7047   -2.3965   -0.9254 H         1 <0>         0.1011
     26 H11        -3.2044   -2.3278    1.2784 H         1 <0>         0.0785
     27 H12        -2.8556   -3.6560    0.1497 H         1 <0>         0.0732
     28 H13        -1.2619   -3.6087   -1.3984 H         1 <0>         0.0679
     29 H14        -0.8434   -1.9649   -1.9757 H         1 <0>         0.0739
     30 H15         1.1444   -3.6834   -1.3576 H         1 <0>         0.0670
     31 H16         1.2711   -1.9766   -0.8180 H         1 <0>         0.0721
     32 H17         0.3278   -4.4169    0.7849 H         1 <0>         0.0762
     33 H18         1.5186   -3.1668    1.2636 H         1 <0>         0.0640
     34 H19         0.1168   -3.4928    3.6798 H         1 <0>         0.0396
     35 H20        -0.9813   -2.1102    3.9045 H         1 <0>         0.0397
     36 H21        -1.5572   -3.7646    4.2203 H         1 <0>         0.0849
     37 H22        -4.2828   -0.8173   -3.3775 H         1 <0>         0.0633
     38 H23        -5.4523   -0.5943   -2.0543 H         1 <0>         0.0602
     39 H24        -4.3417    0.7259   -2.4925 H         1 <0>         0.0597
@<TRIPOS>BOND
     1    1    2 1
     2    1   18 1
     3    1   19 1
     4    1   20 1
     5    2    3 1
     6    2   21 1
     7    2   22 1
     8    3    4 1
     9    3    9 1
    10    3    5 1
    11    5    6 1
    12    5   23 1
    13    5   24 1
    14    6    7 2
    15    6   17 1
    16    7    8 1
    17    7   25 1
    18    8    9 1
    19    8   26 1
    20    8   27 1
    21    9   13 1
    22    9   10 1
    23   10   11 1
    24   10   28 1
    25   10   29 1
    26   11   12 1
    27   11   30 1
    28   11   31 1
    29   12   13 1
    30   12   32 1
    31   12   33 1
    32   13   14 1
    33   13   15 1
    34   15   16 1
    35   16   34 1
    36   16   35 1
    37   16   36 1
    38   17   37 1
    39   17   38 1
    40   17   39 1
@<TRIPOS>MOLECULE
ZINC43763042
   38    40     0     0     0
SMALL
USER_CHARGES

@<TRIPOS>ATOM
      1 C1         -0.1979    1.3795   -0.1584 C.3       1 <0>        -0.1220
      2 C2         -0.0850   -0.1489   -0.0989 C.3       1 <0>        -0.1271
      3 C3         -1.2368   -0.8183    0.6424 C.3       1 <0>        -0.0746
      4 C4         -1.6516   -2.1537    0.0450 C.3       1 <0>        -0.0855
      5 C5         -0.6186   -3.2429    0.1133 C.2       1 <0>        -0.1415
      6 C6          0.3371   -3.2056   -0.7559 C.2       1 <0>        -0.1041
      7 C7          1.5235   -4.1367   -0.8854 C.3       1 <0>        -0.0620
      8 C8          2.7058   -3.7950   -0.0180 C.3       1 <0>        -0.0990
      9 C9          2.8018   -2.6627    0.9683 C.3       1 <0>        -0.0610
     10 C10         1.5303   -1.8189    1.0959 C.2       1 <0>        -0.1378
     11 C11         0.7752   -2.0915    2.1393 C.2       1 <0>         0.0191
     12 O1          1.0403   -3.1816    2.9022 O.3       1 <0>        -0.3221
     13 C12         0.1802   -3.4167    4.0189 C.3       1 <0>         0.0313
     14 C13         1.3570   -0.6554    0.1433 C.3       1 <0>        -0.0858
     15 H1          2.1351    0.1372    0.2683 H         1 <0>         0.1053
     16 C14         0.6975   -0.7786   -1.2162 C.3       1 <0>        -0.0955
     17 H2          1.0580   -0.0537   -1.9726 H         1 <0>         0.0976
     18 C15         0.3282   -2.1060   -1.8223 C.3       1 <0>        -0.0651
     19 H3          0.8003    1.8174   -0.1680 H         1 <0>         0.0573
     20 H4         -0.7306    1.6695   -1.0640 H         1 <0>         0.0579
     21 H5         -0.7434    1.7378    0.7146 H         1 <0>         0.0580
     22 H6         -1.0993   -0.8585    1.7002 H         1 <0>         0.0761
     23 H7         -2.1148   -0.1458    0.4969 H         1 <0>         0.0538
     24 H8         -2.5459   -2.4942    0.5840 H         1 <0>         0.0567
     25 H9         -1.9450   -1.9931   -0.9937 H         1 <0>         0.0699
     26 H10        -0.6718   -4.0342    0.8450 H         1 <0>         0.1088
     27 H11         1.1813   -5.1465   -0.6421 H         1 <0>         0.0581
     28 H12         1.8358   -4.1372   -1.9330 H         1 <0>         0.0639
     29 H13         2.9513   -4.7156    0.5494 H         1 <0>         0.0454
     30 H14         3.5715   -3.6808   -0.7008 H         1 <0>         0.0442
     31 H15         3.0264   -3.0627    1.9602 H         1 <0>         0.0684
     32 H16         3.6111   -1.9905    0.6750 H         1 <0>         0.0567
     33 H17        -0.0552   -1.4473    2.3880 H         1 <0>         0.1238
     34 H18         0.5020   -4.3171    4.5422 H         1 <0>         0.0934
     35 H19         0.2260   -2.5656    4.6983 H         1 <0>         0.0475
     36 H20        -0.8436   -3.5467    3.6680 H         1 <0>         0.0487
     37 H21         1.0514   -2.3623   -2.6069 H         1 <0>         0.0683
     38 H22        -0.6586   -2.0476   -2.2875 H         1 <0>         0.0731
@<TRIPOS>BOND
     1    1    2 1
     2    1   19 1
     3    1   20 1
     4    1   21 1
     5    2   14 1
     6    2   16 1
     7    2    3 1
     8    3    4 1
     9    3   22 1
    10    3   23 1
    11    4    5 1
    12    4   24 1
    13    4   25 1
    14    5    6 2
    15    5   26 1
    16    6   18 1
    17    6    7 1
    18    7    8 1
    19    7   27 1
    20    7   28 1
    21    8    9 1
    22    8   29 1
    23    8   30 1
    24    9   10 1
    25    9   31 1
    26    9   32 1
    27   10   11 2
    28   10   14 1
    29   11   12 1
    30   11   33 1
    31   12   13 1
    32   13   34 1
    33   13   35 1
    34   13   36 1
    35   14   15 1
    36   14   16 1
    37   16   17 1
    38   16   18 1
    39   18   37 1
    40   18   38 1
@<TRIPOS>MOLECULE
ZINC57491277
   33    34     0     0     0
SMALL
USER_CHARGES

@<TRIPOS>ATOM
      1 C1          2.2460   -1.6610    1.8164 C.3       1 <0>        -0.1217
      2 C2          1.0853   -1.5176    0.8661 C.ar      1 <0>        -0.0620
      3 C3          1.1291   -2.1249   -0.3752 C.ar      1 <0>        -0.1208
      4 C4          0.0645   -1.9934   -1.2468 C.ar      1 <0>        -0.1160
      5 C5         -1.0444   -1.2550   -0.8772 C.ar      1 <0>        -0.1265
      6 C6         -1.0886   -0.6487    0.3640 C.ar      1 <0>        -0.1137
      7 C7         -0.0255   -0.7837    1.2376 C.ar      1 <0>        -0.0714
      8 C8         -0.0758   -0.1270    2.5930 C.3       1 <0>        -0.0793
      9 C9         -1.4343    0.5513    2.7809 C.3       1 <0>        -0.1044
     10 C10        -1.4855    1.2181    4.1570 C.3       1 <0>        -0.1263
     11 C11        -1.2893    0.1596    5.2442 C.3       1 <0>        -0.1212
     12 C12         0.0692   -0.5188    5.0563 C.3       1 <0>        -0.1260
     13 C13         0.1204   -1.1855    3.6802 C.3       1 <0>        -0.1157
     14 C14         1.0186    0.9042    2.6926 C.2       1 <0>         0.3479
     15 O1          1.7627    1.0870    1.7592 O.2       1 <0>        -0.4398
     16 H1          2.1397   -2.5862    2.3829 H         1 <0>         0.0712
     17 H2          3.1775   -1.6862    1.2510 H         1 <0>         0.0667
     18 H3          2.2604   -0.8143    2.5028 H         1 <0>         0.0670
     19 H4          1.9953   -2.7017   -0.6639 H         1 <0>         0.1211
     20 H5          0.0990   -2.4672   -2.2167 H         1 <0>         0.1211
     21 H6         -1.8759   -1.1516   -1.5586 H         1 <0>         0.1212
     22 H7         -1.9546   -0.0715    0.6526 H         1 <0>         0.1252
     23 H8         -1.5741    1.3054    2.0064 H         1 <0>         0.0695
     24 H9         -2.2259   -0.1945    2.7089 H         1 <0>         0.0786
     25 H10        -0.6939    1.9639    4.2290 H         1 <0>         0.0634
     26 H11        -2.4533    1.7013    4.2909 H         1 <0>         0.0702
     27 H12        -1.3257    0.6346    6.2246 H         1 <0>         0.0657
     28 H13        -2.0808   -0.5863    5.1722 H         1 <0>         0.0653
     29 H14         0.8608    0.2271    5.1283 H         1 <0>         0.0629
     30 H15         0.2090   -1.2729    5.8308 H         1 <0>         0.0702
     31 H16        -0.6712   -1.9314    3.6082 H         1 <0>         0.0756
     32 H17         1.0882   -1.6688    3.5463 H         1 <0>         0.0827
     33 H18         1.1374    1.4797    3.5986 H         1 <0>         0.0993
@<TRIPOS>BOND
     1    1    2 1
     2    1   16 1
     3    1   17 1
     4    1   18 1
     5    2    7 ar
     6    2    3 ar
     7    3    4 ar
     8    3   19 1
     9    4    5 ar
    10    4   20 1
    11    5    6 ar
    12    5   21 1
    13    6    7 ar
    14    6   22 1
    15    7    8 1
    16    8   13 1
    17    8    9 1
    18    8   14 1
    19    9   10 1
    20    9   23 1
    21    9   24 1
    22   10   11 1
    23   10   25 1
    24   10   26 1
    25   11   12 1
    26   11   27 1
    27   11   28 1
    28   12   13 1
    29   12   29 1
    30   12   30 1
    31   13   31 1
    32   13   32 1
    33   14   15 2
    34   14   33 1
@<TRIPOS>MOLECULE
ZINC09260036
   30    31     0     0     0
SMALL
USER_CHARGES
5-bromo-N-[(2-chlorophenyl)methylthiocarbamoyl]furan-2-carboxamide
@<TRIPOS>ATOM
      1 C1         -6.4571   -0.5506   -1.1491 C.ar      1 <0>        -0.1155
      2 C2         -6.8339   -1.1702    0.0280 C.ar      1 <0>        -0.0928
      3 C3         -6.1724   -0.8777    1.2056 C.ar      1 <0>        -0.1118
      4 C4         -5.1326    0.0352    1.2063 C.ar      1 <0>        -0.0210
      5 C5         -4.7558    0.6545    0.0282 C.ar      1 <0>        -0.1132
      6 C6         -5.4217    0.3650   -1.1482 C.ar      1 <0>        -0.0828
      7 C7         -3.6238    1.6493    0.0282 C.3       1 <0>         0.1620
      8 N1         -2.3452    0.9341    0.0182 N.pl3     1 <0>        -0.6635
      9 C8         -1.1873    1.6238    0.0165 C.2       1 <0>         0.5186
     10 S1         -1.2105    3.3356    0.0259 S.2       1 <0>        -0.5017
     11 N2         -0.0111    0.9658    0.0074 N.am      1 <0>        -0.6413
     12 C9          1.1468    1.6555   -0.0000 C.2       1 <0>         0.5854
     13 O1          1.1303    2.8723    0.0067 O.2       1 <0>        -0.3761
     14 C10         2.4248    0.9407   -0.0160 C.2       1 <0>        -0.0659
     15 C11         3.6654    1.5139   -0.0303 C.2       1 <0>        -0.1007
     16 C12         4.5950    0.4639   -0.0404 C.2       1 <0>        -0.1620
     17 C13         3.8908   -0.6919   -0.0399 C.2       1 <0>         0.0012
     18 O2          2.5837   -0.3997   -0.0252 O.3       1 <0>        -0.1532
     19 Br1         4.6303   -2.4322   -0.0566 Br        1 <0>         0.0694
     20 Cl1        -4.3015    0.4036    2.6853 Cl        1 <0>        -0.0570
     21 H1         -6.9748   -0.7790   -2.0690 H         1 <0>         0.1348
     22 H2         -7.6455   -1.8828    0.0273 H         1 <0>         0.1366
     23 H3         -6.4672   -1.3613    2.1252 H         1 <0>         0.1379
     24 H4         -5.1305    0.8518   -2.0672 H         1 <0>         0.1377
     25 H5         -3.6858    2.2702    0.9219 H         1 <0>         0.1064
     26 H6         -3.6942    2.2799   -0.8580 H         1 <0>         0.1051
     27 H7         -2.3321   -0.0358    0.0129 H         1 <0>         0.3998
     28 H8          0.0021   -0.0041    0.0020 H         1 <0>         0.4142
     29 H9          3.8870    2.5709   -0.0313 H         1 <0>         0.1763
     30 H10         5.6707    0.5597   -0.0503 H         1 <0>         0.1732
@<TRIPOS>BOND
     1    1    6 ar
     2    1    2 ar
     3    1   21 1
     4    2    3 ar
     5    2   22 1
     6    3    4 ar
     7    3   23 1
     8    4    5 ar
     9    4   20 1
    10    5    6 ar
    11    5    7 1
    12    6   24 1
    13    7    8 1
    14    7   25 1
    15    7   26 1
    16    8    9 1
    17    8   27 1
    18    9   10 2
    19    9   11 1
    20   11   12 am
    21   11   28 1
    22   12   13 2
    23   12   14 1
    24   14   18 1
    25   14   15 2
    26   15   16 1
    27   15   29 1
    28   16   17 2
    29   16   30 1
    30   17   18 1
    31   17   19 1
@<TRIPOS>MOLECULE
ZINC36948781
   30    30     0     0     0
SMALL
USER_CHARGES

@<TRIPOS>ATOM
      1 C1         -0.0187    1.5258    0.0104 C.3       1 <0>        -0.1658
      2 C2          0.0021   -0.0041    0.0020 C.3       1 <0>        -0.1174
      3 C3          0.7421   -0.5109    1.2415 C.3       1 <0>         0.0956
      4 H1          0.2852   -0.0874    2.1360 H         1 <0>         0.0683
      5 C4          0.6554   -2.0374    1.2986 C.3       1 <0>        -0.1931
      6 O1          2.1131   -0.1139    1.1734 O.3       1 <0>        -0.3138
      7 C5          2.7531    0.1001    2.3534 C.ar      1 <0>         0.2183
      8 C6          2.7402    1.3612    2.9325 C.ar      1 <0>        -0.1383
      9 C7          3.3914    1.5759    4.1328 C.ar      1 <0>         0.0377
     10 C8          4.0555    0.5357    4.7562 C.ar      1 <0>        -0.6800
     11 C9          4.0704   -0.7216    4.1813 C.ar      1 <0>         0.0380
     12 C10         3.4156   -0.9435    2.9841 C.ar      1 <0>        -0.1374
     13 Br1         3.4298   -2.6653    2.2026 Br        1 <0>         0.0003
     14 S1          4.8850    0.8130    6.2858 S.o2      1 <0>         2.7062
     15 O2          5.8891   -0.1870    6.3904 O.2       1 <0>        -0.9516
     16 O3          5.1838    2.2012    6.3398 O.2       1 <0>        -0.9516
     17 N1          3.7936    0.5164    7.4954 N.pl3     1 <0>        -1.2474
     18 Br2         1.8332    2.7848    2.0801 Br        1 <0>        -0.0002
     19 H2          1.0039    1.9031    0.0027 H         1 <0>         0.0713
     20 H3         -0.5459    1.8868   -0.8726 H         1 <0>         0.0563
     21 H4         -0.5289    1.8773    0.9072 H         1 <0>         0.0542
     22 H5         -1.0205   -0.3814    0.0098 H         1 <0>         0.0840
     23 H6          0.5123   -0.3556   -0.8948 H         1 <0>         0.0772
     24 H7          1.1123   -2.4609    0.4042 H         1 <0>         0.0726
     25 H8          1.1826   -2.3985    2.1817 H         1 <0>         0.0715
     26 H9         -0.3904   -2.3402    1.3506 H         1 <0>         0.0721
     27 H10         3.3817    2.5571    4.5839 H         1 <0>         0.1653
     28 H11         4.5902   -1.5323    4.6702 H         1 <0>         0.1654
     29 H12         2.8887    0.2445    7.2762 H         1 <0>         0.4178
     30 H13         4.0593    0.6145    8.4231 H         1 <0>         0.4248
@<TRIPOS>BOND
     1    1    2 1
     2    1   19 1
     3    1   20 1
     4    1   21 1
     5    2    3 1
     6    2   22 1
     7    2   23 1
     8    3    4 1
     9    3    5 1
    10    3    6 1
    11    5   24 1
    12    5   25 1
    13    5   26 1
    14    6    7 1
    15    7   12 ar
    16    7    8 ar
    17    8    9 ar
    18    8   18 1
    19    9   10 ar
    20    9   27 1
    21   10   11 ar
    22   10   14 1
    23   11   12 ar
    24   11   28 1
    25   12   13 1
    26   14   15 2
    27   14   16 2
    28   14   17 1
    29   17   29 1
    30   17   30 1
@<TRIPOS>MOLECULE
ZINC43225453
   51    54     0     0     0
SMALL
USER_CHARGES

@<TRIPOS>ATOM
      1 C1         -1.2350    2.3275    0.1608 C.3       1 <0>        -0.1488
      2 C2         -0.5957    0.9428    0.0388 C.3       1 <0>        -0.0580
      3 C3         -1.6745   -0.1094    0.0289 C.2       1 <0>         0.0493
      4 C4         -2.1876   -0.7285    1.1245 C.2       1 <0>        -0.1070
      5 C5         -3.2058   -1.6684    0.6208 C.2       1 <0>        -0.2104
      6 C6         -3.2108   -1.5269   -0.7376 C.2       1 <0>         0.0916
      7 N1         -2.3008   -0.5934   -1.0783 N.pl3     1 <0>        -0.4185
      8 C7         -2.0213   -0.1623   -2.4502 C.3       1 <0>         0.1710
      9 H1         -1.0417    0.3125   -2.5047 H         1 <0>         0.1107
     10 C8         -3.1156    0.8100   -2.9395 C.3       1 <0>        -0.1297
     11 C9         -4.1165   -0.1390   -3.6322 C.3       1 <0>        -0.0991
     12 C10        -3.2927   -1.3291   -4.0749 C.ar      1 <0>        -0.0670
     13 C11        -2.0860   -1.3430   -3.3952 C.ar      1 <0>        -0.1267
     14 C12        -1.1652   -2.3474   -3.6407 C.ar      1 <0>        -0.0823
     15 C13        -1.4454   -3.3372   -4.5628 C.ar      1 <0>        -0.1239
     16 C14        -2.6487   -3.3260   -5.2425 C.ar      1 <0>        -0.0991
     17 C15        -3.5740   -2.3215   -4.9985 C.ar      1 <0>        -0.1167
     18 C16        -4.0927   -2.2846   -1.6963 C.3       1 <0>        -0.1232
     19 C17        -4.0454   -2.5752    1.4193 C.2       1 <0>         0.6023
     20 O1         -5.1264   -2.1988    1.8309 O.2       1 <0>        -0.5390
     21 N2         -3.6168   -3.8230    1.6946 N.am      1 <0>        -0.8491
     22 C18        -1.8022   -0.5050    2.5367 C.ar      1 <0>         0.0271
     23 C19        -0.5138   -0.8268    2.9674 C.ar      1 <0>        -0.1120
     24 C20        -0.1560   -0.6207    4.2749 C.ar      1 <0>        -0.0683
     25 C21        -1.0819   -0.0875    5.1768 C.ar      1 <0>        -0.0340
     26 C22        -2.3717    0.2349    4.7442 C.ar      1 <0>        -0.0658
     27 C23        -2.7257    0.0328    3.4350 C.ar      1 <0>        -0.1028
     28 C24        -0.7094    0.1278    6.5426 C.1       1 <0>         0.2525
     29 N3         -0.4140    0.2986    7.6262 N.1       1 <0>        -0.4170
     30 H2         -0.4548    3.0886    0.1680 H         1 <0>         0.0625
     31 H3         -1.8998    2.4967   -0.6863 H         1 <0>         0.0532
     32 H4         -1.8060    2.3837    1.0876 H         1 <0>         0.0621
     33 H5         -0.0248    0.8866   -0.8880 H         1 <0>         0.0706
     34 H6          0.0690    0.7737    0.8859 H         1 <0>         0.0894
     35 H7         -3.5844    1.3207   -2.0984 H         1 <0>         0.0894
     36 H8         -2.7064    1.5276   -3.6507 H         1 <0>         0.0928
     37 H9         -4.8880   -0.4535   -2.9292 H         1 <0>         0.0946
     38 H10        -4.5672    0.3511   -4.4952 H         1 <0>         0.0851
     39 H11        -0.2247   -2.3568   -3.1099 H         1 <0>         0.1218
     40 H12        -0.7246   -4.1189   -4.7525 H         1 <0>         0.1287
     41 H13        -2.8692   -4.0990   -5.9639 H         1 <0>         0.1290
     42 H14        -4.5143   -2.3116   -5.5296 H         1 <0>         0.1268
     43 H15        -4.9556   -1.6721   -1.9579 H         1 <0>         0.0800
     44 H16        -3.5289   -2.5221   -2.5985 H         1 <0>         0.0982
     45 H17        -4.4316   -3.2078   -1.2261 H         1 <0>         0.0717
     46 H18        -2.7548   -4.1232    1.3663 H         1 <0>         0.4019
     47 H19        -4.1703   -4.4209    2.2210 H         1 <0>         0.4014
     48 H20         0.2012   -1.2386    2.2706 H         1 <0>         0.1329
     49 H21         0.8405   -0.8704    4.6080 H         1 <0>         0.1332
     50 H22        -3.0877    0.6468    5.4400 H         1 <0>         0.1333
     51 H23        -3.7208    0.2855    3.0997 H         1 <0>         0.1351
@<TRIPOS>BOND
     1    1    2 1
     2    1   30 1
     3    1   31 1
     4    1   32 1
     5    2    3 1
     6    2   33 1
     7    2   34 1
     8    3    7 1
     9    3    4 2
    10    4    5 1
    11    4   22 1
    12    5    6 2
    13    5   19 1
    14    6    7 1
    15    6   18 1
    16    7    8 1
    17    8    9 1
    18    8   13 1
    19    8   10 1
    20   10   11 1
    21   10   35 1
    22   10   36 1
    23   11   12 1
    24   11   37 1
    25   11   38 1
    26   12   17 ar
    27   12   13 ar
    28   13   14 ar
    29   14   15 ar
    30   14   39 1
    31   15   16 ar
    32   15   40 1
    33   16   17 ar
    34   16   41 1
    35   17   42 1
    36   18   43 1
    37   18   44 1
    38   18   45 1
    39   19   20 2
    40   19   21 am
    41   21   46 1
    42   21   47 1
    43   22   27 ar
    44   22   23 ar
    45   23   24 ar
    46   23   48 1
    47   24   25 ar
    48   24   49 1
    49   25   26 ar
    50   25   28 1
    51   26   27 ar
    52   26   50 1
    53   27   51 1
    54   28   29 3
@<TRIPOS>MOLECULE
ZINC51648853
   41    42     0     0     0
SMALL
USER_CHARGES

@<TRIPOS>ATOM
      1 C1         -0.0780    1.2596   -0.1247 C.3       1 <0>        -0.1158
      2 C2         -0.0568   -0.2409    0.0141 C.ar      1 <0>        -0.0683
      3 C3         -0.0813   -1.0389   -1.1126 C.ar      1 <0>        -0.1784
      4 C4         -0.0614   -2.4214   -0.9847 C.ar      1 <0>         0.1995
      5 C5         -0.0167   -3.0014    0.2766 C.ar      1 <0>        -0.1811
      6 C6          0.0078   -2.2032    1.4028 C.ar      1 <0>        -0.0785
      7 C7         -0.0069   -0.8207    1.2744 C.ar      1 <0>         0.1079
      8 N1          0.0239   -0.0103    2.4180 N.am      1 <0>        -0.6770
      9 C8         -0.4398   -0.4832    3.5918 C.2       1 <0>         0.7061
     10 O1         -0.8198   -1.6352    3.6755 O.2       1 <0>        -0.5718
     11 N2         -0.4823    0.3207    4.6727 N.am      1 <0>        -0.7400
     12 C9         -0.9863   -0.1935    5.9486 C.3       1 <0>         0.1840
     13 C10        -0.9286    0.8967    6.9875 C.2       1 <0>        -0.1559
     14 C11        -2.0369    1.3649    7.5088 C.2       1 <0>        -0.1071
     15 Br1         0.7422    1.5894    7.5393 Br        1 <0>        -0.0554
     16 N3         -0.0867   -3.2301   -2.1262 N.pl3     1 <0>        -0.6337
     17 C12         0.0554   -4.6804   -1.9880 C.3       1 <0>         0.1205
     18 C13        -1.2486   -5.3643   -2.4145 C.3       1 <0>        -0.1033
     19 S1         -1.6333   -4.8698   -4.1212 S.3       1 <0>        -0.2586
     20 C14        -1.5964   -3.0536   -4.0439 C.3       1 <0>        -0.1030
     21 C15        -0.2609   -2.6162   -3.4435 C.3       1 <0>         0.1204
     22 H1          0.9439    1.6325   -0.1937 H         1 <0>         0.0724
     23 H2         -0.6264    1.5334   -1.0260 H         1 <0>         0.0711
     24 H3         -0.5668    1.6981    0.7453 H         1 <0>         0.0627
     25 H4         -0.1164   -0.5877   -2.0933 H         1 <0>         0.1270
     26 H5         -0.0015   -4.0766    0.3764 H         1 <0>         0.1256
     27 H6          0.0421   -2.6542    2.3835 H         1 <0>         0.1558
     28 H7          0.3789    0.8909    2.3645 H         1 <0>         0.4050
     29 H8         -0.1791    1.2396    4.6059 H         1 <0>         0.3995
     30 H9         -2.0177   -0.5236    5.8253 H         1 <0>         0.0880
     31 H10        -0.3716   -1.0343    6.2698 H         1 <0>         0.0854
     32 H11        -2.9911    0.9693    7.1936 H         1 <0>         0.1266
     33 H12        -1.9956    2.1462    8.2533 H         1 <0>         0.1197
     34 H13         0.8718   -5.0275   -2.6214 H         1 <0>         0.0788
     35 H14         0.2719   -4.9268   -0.9486 H         1 <0>         0.0967
     36 H15        -1.1269   -6.4464   -2.3658 H         1 <0>         0.1147
     37 H16        -2.0574   -5.0546   -1.7527 H         1 <0>         0.0868
     38 H17        -1.6995   -2.6426   -5.0481 H         1 <0>         0.1146
     39 H18        -2.4122   -2.6977   -3.4148 H         1 <0>         0.0859
     40 H19        -0.2486   -1.5309   -3.3430 H         1 <0>         0.0954
     41 H20         0.5503   -2.9296   -4.1006 H         1 <0>         0.0780
@<TRIPOS>BOND
     1    1    2 1
     2    1   22 1
     3    1   23 1
     4    1   24 1
     5    2    7 ar
     6    2    3 ar
     7    3    4 ar
     8    3   25 1
     9    4    5 ar
    10    4   16 1
    11    5    6 ar
    12    5   26 1
    13    6    7 ar
    14    6   27 1
    15    7    8 1
    16    8    9 am
    17    8   28 1
    18    9   10 2
    19    9   11 am
    20   11   12 1
    21   11   29 1
    22   12   13 1
    23   12   30 1
    24   12   31 1
    25   13   14 2
    26   13   15 1
    27   14   32 1
    28   14   33 1
    29   16   21 1
    30   16   17 1
    31   17   18 1
    32   17   34 1
    33   17   35 1
    34   18   19 1
    35   18   36 1
    36   18   37 1
    37   19   20 1
    38   20   21 1
    39   20   38 1
    40   20   39 1
    41   21   40 1
    42   21   41 1
@<TRIPOS>MOLECULE
ZINC20136971
   30    31     0     0     0
SMALL
USER_CHARGES

@<TRIPOS>ATOM
      1 C1         -0.0097    1.3813    0.0134 C.ar      1 <0>        -0.1111
      2 C2          1.1775    2.0897    0.0125 C.ar      1 <0>        -0.0862
      3 C3          2.3856    1.4210    0.0068 C.ar      1 <0>        -0.0219
      4 C4          2.4100    0.0238    0.0020 C.ar      1 <0>         0.0111
      5 C5          1.2116   -0.6895    0.0029 C.ar      1 <0>        -0.0835
      6 C6          0.0045   -0.0081    0.0087 C.ar      1 <0>         0.1432
      7 N1         -1.2008   -0.7201    0.0097 N.am      1 <0>        -0.6489
      8 C7         -1.2972   -1.8828   -0.6652 C.2       1 <0>         0.5241
      9 O1         -0.3181   -2.3546   -1.2034 O.2       1 <0>        -0.4517
     10 C8         -2.6217   -2.5966   -0.7509 C.3       1 <0>         0.0980
     11 Cl1        -2.4278   -4.1097   -1.7121 Cl        1 <0>        -0.0282
     12 Cl2        -3.1912   -3.0082    0.9095 Cl        1 <0>        -0.0570
     13 Cl3        -3.8306   -1.5260   -1.5528 Cl        1 <0>        -0.0555
     14 C9          3.7011   -0.6953   -0.0046 C.2       1 <0>         0.0213
     15 C10         4.7417   -0.4588   -0.8469 C.2       1 <0>        -0.1676
     16 C11         5.7602   -1.3689   -0.4993 C.2       1 <0>        -0.1815
     17 C12         5.2957   -2.1078    0.5271 C.2       1 <0>        -0.0099
     18 O2          4.0533   -1.6948    0.8266 O.3       1 <0>        -0.1584
     19 C13         6.0475   -3.2108    1.2265 C.3       1 <0>         0.1571
     20 O3          6.7876   -2.6639    2.3198 O.3       1 <0>        -0.5658
     21 Cl4         3.8734    2.3155    0.0051 Cl        1 <0>        -0.0461
     22 H1         -0.9515    1.9097    0.0224 H         1 <0>         0.1454
     23 H2          1.1600    3.1696    0.0158 H         1 <0>         0.1504
     24 H3          1.2241   -1.7694   -0.0011 H         1 <0>         0.1536
     25 H4         -1.9666   -0.3767    0.4961 H         1 <0>         0.4216
     26 H5          4.7802    0.2826   -1.6312 H         1 <0>         0.1540
     27 H6          6.7294   -1.4575   -0.9674 H         1 <0>         0.1546
     28 H7          5.3409   -3.9517    1.6006 H         1 <0>         0.0663
     29 H8          6.7334   -3.6849    0.5245 H         1 <0>         0.0838
     30 H9          7.2970   -3.3187    2.8166 H         1 <0>         0.3889
@<TRIPOS>BOND
     1    1    6 ar
     2    1    2 ar
     3    1   22 1
     4    2    3 ar
     5    2   23 1
     6    3    4 ar
     7    3   21 1
     8    4    5 ar
     9    4   14 1
    10    5    6 ar
    11    5   24 1
    12    6    7 1
    13    7    8 am
    14    7   25 1
    15    8    9 2
    16    8   10 1
    17   10   11 1
    18   10   12 1
    19   10   13 1
    20   14   18 1
    21   14   15 2
    22   15   16 1
    23   15   26 1
    24   16   17 2
    25   16   27 1
    26   17   18 1
    27   17   19 1
    28   19   20 1
    29   19   28 1
    30   19   29 1
    31   20   30 1
@<TRIPOS>MOLECULE
ZINC36812990
   35    37     0     0     0
SMALL
USER_CHARGES

@<TRIPOS>ATOM
      1 C1         -0.7519   -3.1518   -2.0488 C.ar      1 <0>        -0.0279
      2 C2         -0.3684   -1.9595   -2.5817 C.ar      1 <0>        -0.1229
      3 C3          0.8615   -1.3908   -2.2077 C.ar      1 <0>         0.1277
      4 C4          1.6812   -2.0758   -1.2775 C.ar      1 <0>        -0.0537
      5 C5          1.2554   -3.3024   -0.7475 C.ar      1 <0>        -0.0460
      6 C6          0.0566   -3.8235   -1.1338 C.ar      1 <0>        -0.0751
      7 Br1        -0.5166   -5.4778   -0.4191 Br        1 <0>         0.0071
      8 C7          2.9174   -1.5033   -0.9021 C.ar      1 <0>         0.2563
      9 C8          3.2692   -0.2843   -1.4711 C.ar      1 <0>         0.1544
     10 C9          2.4058    0.3254   -2.3793 C.ar      1 <0>         0.1395
     11 N1          1.2604   -0.2201   -2.7169 N.ar      1 <0>        -0.4317
     12 N2          4.4847    0.3278   -1.1328 N.pl3     1 <0>        -0.8415
     13 N3          3.7559   -2.1391    0.0084 N.pl3     1 <0>        -0.7631
     14 C10         4.9969   -2.7662   -0.4529 C.3       1 <0>         0.1616
     15 H1          5.4639   -2.1325   -1.2068 H         1 <0>         0.0993
     16 C11         5.9562   -2.9355    0.7369 C.3       1 <0>        -0.1413
     17 C12         7.1160   -3.8727    0.2944 C.3       1 <0>        -0.5737
     18 S1          6.1828   -5.1261   -0.6817 S.o2      1 <0>         2.3754
     19 O1          6.8870   -5.3912   -1.8872 O.2       1 <0>        -0.9238
     20 O2          5.8266   -6.2051    0.1716 O.2       1 <0>        -0.9187
     21 C13         4.6755   -4.1483   -1.0708 C.3       1 <0>        -0.6212
     22 H2         -1.7000   -3.5820   -2.3362 H         1 <0>         0.1638
     23 H3         -1.0068   -1.4522   -3.2899 H         1 <0>         0.1655
     24 H4          1.8740   -3.8312   -0.0375 H         1 <0>         0.1633
     25 H5          2.6861    1.2723   -2.8166 H         1 <0>         0.2106
     26 H6          5.1254   -0.1412   -0.5756 H         1 <0>         0.4188
     27 H7          4.6848    1.2203   -1.4559 H         1 <0>         0.4176
     28 H8          3.5186   -2.1671    0.9485 H         1 <0>         0.4220
     29 H9          6.3578   -1.9646    1.0272 H         1 <0>         0.1120
     30 H10         5.4244   -3.3799    1.5782 H         1 <0>         0.1028
     31 H11         7.8350   -3.3423   -0.3300 H         1 <0>         0.1461
     32 H12         7.6053   -4.3281    1.1555 H         1 <0>         0.1532
     33 H13         3.7969   -4.5879   -0.5986 H         1 <0>         0.1468
     34 H14         4.5362   -4.0668   -2.1487 H         1 <0>         0.1444
     35 H15         0.6888    0.2374   -3.3532 H         1 <0>         0.4524
@<TRIPOS>BOND
     1    1    6 ar
     2    1    2 ar
     3    1   22 1
     4    2    3 ar
     5    2   23 1
     6    3   11 ar
     7    3    4 ar
     8    4    5 ar
     9    4    8 ar
    10    5    6 ar
    11    5   24 1
    12    6    7 1
    13    8    9 ar
    14    8   13 1
    15    9   10 ar
    16    9   12 1
    17   10   11 ar
    18   10   25 1
    19   11   35 1
    20   12   26 1
    21   12   27 1
    22   13   14 1
    23   13   28 1
    24   14   15 1
    25   14   21 1
    26   14   16 1
    27   16   17 1
    28   16   29 1
    29   16   30 1
    30   17   18 1
    31   17   31 1
    32   17   32 1
    33   18   19 2
    34   18   20 2
    35   18   21 1
    36   21   33 1
    37   21   34 1
@<TRIPOS>MOLECULE
ZINC43411131
   40    40     0     0     0
SMALL
USER_CHARGES

@<TRIPOS>ATOM
      1 C1         -0.0187    1.5258    0.0104 C.3       1 <0>        -0.1786
      2 C2          0.0021   -0.0041    0.0020 C.3       1 <0>         0.0504
      3 C3          0.7421   -0.5109    1.2415 C.3       1 <0>        -0.1799
      4 C4         -1.4333   -0.5336    0.0129 C.3       1 <0>         0.0955
      5 N1         -1.4134   -1.9985    0.0048 N.pl3     1 <0>        -1.1298
      6 S1         -2.7837   -2.8473    0.3846 S.o2      1 <0>         2.6883
      7 O1         -2.4553   -4.2244    0.2627 O.2       1 <0>        -0.9242
      8 O2         -3.2870   -2.2879    1.5900 O.2       1 <0>        -0.9239
      9 C5         -3.9747   -2.5009   -0.8670 C.ar      1 <0>        -0.7452
     10 C6         -4.8381   -1.4293   -0.7212 C.ar      1 <0>         0.1046
     11 C7         -5.7733   -1.1553   -1.7014 C.ar      1 <0>        -0.2061
     12 C8         -5.8457   -1.9564   -2.8338 C.ar      1 <0>         0.3017
     13 C9         -4.9775   -3.0310   -2.9778 C.ar      1 <0>        -0.2070
     14 C10        -4.0410   -3.2975   -1.9966 C.ar      1 <0>         0.1089
     15 Cl1        -2.9512   -4.6365   -2.1788 Cl        1 <0>        -0.0109
     16 N2         -6.7900   -1.6821   -3.8257 N.pl3     1 <0>        -0.8466
     17 Cl2        -4.7469   -0.4286    0.6944 Cl        1 <0>        -0.0128
     18 N3          0.6897   -0.4778   -1.2066 N.4       1 <0>        -0.3836
     19 C11        -0.0208    0.0088   -2.3967 C.3       1 <0>        -0.0622
     20 C12         2.0678    0.0307   -1.2170 C.3       1 <0>        -0.0572
     21 H1          1.0039    1.9031    0.0027 H         1 <0>         0.0917
     22 H2         -0.5459    1.8868   -0.8726 H         1 <0>         0.0867
     23 H3         -0.5289    1.8773    0.9072 H         1 <0>         0.1110
     24 H4          0.2319   -0.1594    2.1383 H         1 <0>         0.1121
     25 H5          0.7568   -1.6008    1.2356 H         1 <0>         0.0842
     26 H6          1.7647   -0.1336    1.2338 H         1 <0>         0.0890
     27 H7         -1.9435   -0.1821    0.9097 H         1 <0>         0.1277
     28 H8         -1.9605   -0.1726   -0.8702 H         1 <0>         0.0927
     29 H9         -0.5976   -2.4712   -0.2229 H         1 <0>         0.4111
     30 H10        -6.4474   -0.3193   -1.5868 H         1 <0>         0.1506
     31 H11        -5.0319   -3.6558   -3.8571 H         1 <0>         0.1503
     32 H12        -7.3961   -0.9316   -3.7241 H         1 <0>         0.4127
     33 H13        -6.8398   -2.2422   -4.6161 H         1 <0>         0.4128
     34 H14        -1.0434   -0.3685   -2.3890 H         1 <0>         0.1243
     35 H15        -0.0356    1.0987   -2.3907 H         1 <0>         0.1293
     36 H16         0.4894   -0.3427   -3.2935 H         1 <0>         0.1289
     37 H17         2.5950   -0.3304   -0.3340 H         1 <0>         0.1279
     38 H18         2.5780   -0.3209   -2.1138 H         1 <0>         0.1273
     39 H19         2.0530    1.1205   -1.2110 H         1 <0>         0.1276
     40 H20         0.7033   -1.4867   -1.2121 H         1 <0>         0.4210
@<TRIPOS>BOND
     1    1    2 1
     2    1   21 1
     3    1   22 1
     4    1   23 1
     5    2    3 1
     6    2    4 1
     7    2   18 1
     8    3   24 1
     9    3   25 1
    10    3   26 1
    11    4    5 1
    12    4   27 1
    13    4   28 1
    14    5    6 1
    15    5   29 1
    16    6    7 2
    17    6    8 2
    18    6    9 1
    19    9   14 ar
    20    9   10 ar
    21   10   11 ar
    22   10   17 1
    23   11   12 ar
    24   11   30 1
    25   12   13 ar
    26   12   16 1
    27   13   14 ar
    28   13   31 1
    29   14   15 1
    30   16   32 1
    31   16   33 1
    32   18   19 1
    33   18   20 1
    34   18   40 1
    35   19   34 1
    36   19   35 1
    37   19   36 1
    38   20   37 1
    39   20   38 1
    40   20   39 1
@<TRIPOS>MOLECULE
ZINC50710578
   42    43     0     0     0
SMALL
USER_CHARGES

@<TRIPOS>ATOM
      1 C1          0.0543    1.5197    0.1526 C.3       1 <0>        -0.1568
      2 C2          0.0680   -0.0101    0.1328 C.3       1 <0>        -0.1509
      3 C3         -1.3698   -0.5328    0.1119 C.3       1 <0>        -0.0114
      4 N1         -1.3566   -2.0016    0.0929 N.4       1 <0>        -0.3853
      5 C4         -0.7713   -2.5005    1.3431 C.3       1 <0>        -0.0058
      6 C5         -0.6807   -4.0272    1.2947 C.3       1 <0>        -0.1568
      7 C6         -2.0853   -4.6112    1.1182 C.3       1 <0>         0.1368
      8 C7         -2.7148   -4.0267   -0.1496 C.3       1 <0>        -0.1620
      9 C8         -2.7301   -2.5000   -0.0477 C.3       1 <0>        -0.0021
     10 N2         -1.9981   -6.0684    0.9949 N.am      1 <0>        -0.7245
     11 C9         -3.0531   -6.8373    1.3298 C.2       1 <0>         0.5909
     12 O1         -4.0774   -6.3216    1.7344 O.2       1 <0>        -0.5384
     13 C10        -2.9654   -8.3038    1.2058 C.ar      1 <0>        -0.2808
     14 C11        -1.8409   -8.9040    0.6273 C.ar      1 <0>         0.0375
     15 C12        -1.8071  -10.2845    0.5346 C.ar      1 <0>        -0.2245
     16 C13        -2.8747  -11.0259    1.0115 C.ar      1 <0>         0.2322
     17 N3         -3.9251  -10.4409    1.5527 N.ar      1 <0>        -0.5369
     18 C14        -4.0064   -9.1246    1.6713 C.ar      1 <0>         0.4747
     19 N4         -5.1249   -8.5542    2.2513 N.pl3     1 <0>        -0.8162
     20 Br1        -0.3145  -11.1513   -0.2378 Br        1 <0>        -0.0235
     21 H1          1.0786    1.8920    0.1675 H         1 <0>         0.0776
     22 H2         -0.4541    1.8900   -0.7376 H         1 <0>         0.0675
     23 H3         -0.4714    1.8668    1.0422 H         1 <0>         0.0672
     24 H4          0.5937   -0.3573   -0.7567 H         1 <0>         0.0860
     25 H5          0.5764   -0.3805    1.0230 H         1 <0>         0.0859
     26 H6         -1.8955   -0.1857    1.0014 H         1 <0>         0.1306
     27 H7         -1.8782   -0.1624   -0.7783 H         1 <0>         0.1321
     28 H8          0.2271   -2.0815    1.4689 H         1 <0>         0.1387
     29 H9         -1.3986   -2.2006    2.1825 H         1 <0>         0.1334
     30 H10        -0.0533   -4.3282    0.4558 H         1 <0>         0.0957
     31 H11        -0.2475   -4.3958    2.2246 H         1 <0>         0.1210
     32 H12        -2.6984   -4.3533    1.9818 H         1 <0>         0.1087
     33 H13        -2.1297   -4.3277   -1.0185 H         1 <0>         0.0918
     34 H14        -3.7356   -4.3949   -0.2521 H         1 <0>         0.1185
     35 H15        -3.3157   -2.2001    0.8214 H         1 <0>         0.1324
     36 H16        -3.1778   -2.0806   -0.9487 H         1 <0>         0.1351
     37 H17        -1.1811   -6.4798    0.6723 H         1 <0>         0.4072
     38 H18        -1.0202   -8.3046    0.2619 H         1 <0>         0.1422
     39 H19        -2.8468  -12.1031    0.9384 H         1 <0>         0.1758
     40 H20        -5.2259   -7.5896    2.2644 H         1 <0>         0.4257
     41 H21        -5.8084   -9.1188    2.6450 H         1 <0>         0.4080
     42 H22        -0.8022   -2.3219   -0.6870 H         1 <0>         0.4228
@<TRIPOS>BOND
     1    1    2 1
     2    1   21 1
     3    1   22 1
     4    1   23 1
     5    2    3 1
     6    2   24 1
     7    2   25 1
     8    3    4 1
     9    3   26 1
    10    3   27 1
    11    4    9 1
    12    4    5 1
    13    4   42 1
    14    5    6 1
    15    5   28 1
    16    5   29 1
    17    6    7 1
    18    6   30 1
    19    6   31 1
    20    7    8 1
    21    7   10 1
    22    7   32 1
    23    8    9 1
    24    8   33 1
    25    8   34 1
    26    9   35 1
    27    9   36 1
    28   10   11 am
    29   10   37 1
    30   11   12 2
    31   11   13 1
    32   13   18 ar
    33   13   14 ar
    34   14   15 ar
    35   14   38 1
    36   15   16 ar
    37   15   20 1
    38   16   17 ar
    39   16   39 1
    40   17   18 ar
    41   18   19 1
    42   19   40 1
    43   19   41 1
@<TRIPOS>MOLECULE
ZINC61882191
   37    37     0     0     0
SMALL
USER_CHARGES

@<TRIPOS>ATOM
      1 C1         -0.0144    1.1662    0.1002 C.3       1 <0>        -0.1855
      2 C2          0.0865   -0.3525   -0.0556 C.3       1 <0>         0.0200
      3 H1          0.7148   -0.5887   -0.9145 H         1 <0>         0.1481
      4 C3         -1.3110   -0.9372   -0.2699 C.3       1 <0>         0.0883
      5 N1         -1.2310   -2.3999   -0.2878 N.pl3     1 <0>        -1.1332
      6 S1         -2.6003   -3.3067   -0.0759 S.o2      1 <0>         2.6890
      7 O1         -2.2084   -4.6675   -0.1935 O.2       1 <0>        -0.9151
      8 O2         -3.2492   -2.7981    1.0814 O.2       1 <0>        -0.9375
      9 C4         -3.6645   -2.9695   -1.4392 C.ar      1 <0>        -0.6007
     10 C5         -4.8854   -2.3557   -1.2269 C.ar      1 <0>        -0.0666
     11 C6         -5.7239   -2.0887   -2.2948 C.ar      1 <0>         0.0094
     12 C7         -5.3430   -2.4353   -3.5780 C.ar      1 <0>        -0.1253
     13 C8         -4.1180   -3.0517   -3.7941 C.ar      1 <0>         0.2513
     14 C9         -3.2758   -3.3136   -2.7195 C.ar      1 <0>        -0.0972
     15 Br1        -1.6027   -4.1459   -3.0092 Br        1 <0>        -0.0164
     16 N2         -3.7302   -3.4036   -5.0895 N.pl3     1 <0>        -0.8569
     17 Cl1        -7.2558   -1.3185   -2.0231 Cl        1 <0>        -0.0323
     18 N3          0.6786   -0.9310    1.1580 N.4       1 <0>        -0.3870
     19 C10         2.0526   -0.4360    1.3163 C.3       1 <0>        -0.0516
     20 C11        -0.1206   -0.5400    2.3269 C.3       1 <0>        -0.0656
     21 H2          0.9813    1.5827    0.2528 H         1 <0>         0.0904
     22 H3         -0.4537    1.5954   -0.8003 H         1 <0>         0.1101
     23 H4         -0.6426    1.4024    0.9590 H         1 <0>         0.0893
     24 H5         -1.9662   -0.6190    0.5411 H         1 <0>         0.1125
     25 H6         -1.7111   -0.5835   -1.2202 H         1 <0>         0.1150
     26 H7         -0.3759   -2.8372   -0.4238 H         1 <0>         0.4200
     27 H8         -5.1852   -2.0844   -0.2255 H         1 <0>         0.1616
     28 H9         -5.9979   -2.2271   -4.4111 H         1 <0>         0.1548
     29 H10        -4.3171   -3.2174   -5.8389 H         1 <0>         0.4123
     30 H11        -2.8740   -3.8342   -5.2393 H         1 <0>         0.4091
     31 H12         2.0321    0.6358    1.5138 H         1 <0>         0.1262
     32 H13         2.5301   -0.9500    2.1505 H         1 <0>         0.1272
     33 H14         2.6150   -0.6264    0.4023 H         1 <0>         0.1243
     34 H15        -1.1401   -0.9073    2.2094 H         1 <0>         0.1292
     35 H16         0.3187   -0.9692    3.2274 H         1 <0>         0.1291
     36 H17        -0.1333    0.5467    2.4113 H         1 <0>         0.1300
     37 H18         0.6904   -1.9369    1.0798 H         1 <0>         0.4238
@<TRIPOS>BOND
     1    1    2 1
     2    1   21 1
     3    1   22 1
     4    1   23 1
     5    2    3 1
     6    2    4 1
     7    2   18 1
     8    4    5 1
     9    4   24 1
    10    4   25 1
    11    5    6 1
    12    5   26 1
    13    6    7 2
    14    6    8 2
    15    6    9 1
    16    9   14 ar
    17    9   10 ar
    18   10   11 ar
    19   10   27 1
    20   11   12 ar
    21   11   17 1
    22   12   13 ar
    23   12   28 1
    24   13   14 ar
    25   13   16 1
    26   14   15 1
    27   16   29 1
    28   16   30 1
    29   18   19 1
    30   18   20 1
    31   18   37 1
    32   19   31 1
    33   19   32 1
    34   19   33 1
    35   20   34 1
    36   20   35 1
    37   20   36 1
@<TRIPOS>MOLECULE
ZINC66476077
   51    53     0     0     0
SMALL
USER_CHARGES

@<TRIPOS>ATOM
      1 C1         -0.0187    1.5258    0.0104 C.3       1 <0>        -0.1543
      2 C2          0.0021   -0.0041    0.0020 C.3       1 <0>        -0.1045
      3 C3         -1.4339   -0.5358    0.0229 C.3       1 <0>        -0.1433
      4 C4         -1.4051   -2.0640    0.0946 C.3       1 <0>        -0.0063
      5 N1         -0.7073   -2.4871    1.3147 N.4       1 <0>        -0.3784
      6 C5          0.6906   -2.0421    1.2688 C.3       1 <0>        -0.0137
      7 C6          0.7425   -0.5130    1.2422 C.3       1 <0>        -0.1421
      8 C7         -0.7502   -3.9518    1.4187 C.3       1 <0>        -0.0401
      9 C8         -0.1338   -4.3869    2.7497 C.3       1 <0>         0.1020
     10 H1          0.8713   -3.9743    2.8367 H         1 <0>         0.1327
     11 C9         -0.0645   -5.9144    2.8045 C.3       1 <0>        -0.1582
     12 S1          0.6663   -6.4302    4.3826 S.3       1 <0>         0.0526
     13 C10         0.6766   -8.1899    4.2926 C.2       1 <0>         0.2118
     14 N2          0.2453   -8.9058    3.2821 N.2       1 <0>        -0.4773
     15 C11         0.4114  -10.2217    3.5669 C.2       1 <0>         0.0677
     16 C12         0.9664  -10.3148    4.8007 C.2       1 <0>        -0.0556
     17 N3          1.1392   -9.0311    5.2585 N.pl3     1 <0>        -0.2859
     18 N4          1.6741   -8.6659    6.4612 N.3       1 <0>        -0.5937
     19 C13         0.0494  -11.3579    2.6848 C.ar      1 <0>        -0.0118
     20 C14         0.2695  -12.6682    3.1060 C.ar      1 <0>        -0.1080
     21 C15        -0.0697  -13.7215    2.2813 C.ar      1 <0>        -0.1150
     22 C16        -0.6267  -13.4787    1.0385 C.ar      1 <0>        -0.1139
     23 C17        -0.8473  -12.1804    0.6153 C.ar      1 <0>        -0.1198
     24 C18        -0.5173  -11.1195    1.4340 C.ar      1 <0>        -0.0945
     25 O1         -0.9405   -3.9077    3.8275 O.3       1 <0>        -0.5442
     26 H2          1.0039    1.9031    0.0027 H         1 <0>         0.0677
     27 H3         -0.5459    1.8868   -0.8726 H         1 <0>         0.0673
     28 H4         -0.5289    1.8773    0.9072 H         1 <0>         0.0623
     29 H5          0.5096   -0.3568   -0.8958 H         1 <0>         0.0885
     30 H6         -1.9559   -0.1403    0.8942 H         1 <0>         0.0890
     31 H7         -1.9508   -0.2237   -0.8846 H         1 <0>         0.1129
     32 H8         -2.4259   -2.4459    0.1094 H         1 <0>         0.1303
     33 H9         -0.8832   -2.4585   -0.7772 H         1 <0>         0.1290
     34 H10         1.2170   -2.4078    2.1504 H         1 <0>         0.1315
     35 H11         1.1679   -2.4370    0.3719 H         1 <0>         0.1299
     36 H12         1.7812   -0.1846    1.2063 H         1 <0>         0.1130
     37 H13         0.2657   -0.1170    2.1388 H         1 <0>         0.0897
     38 H14        -1.7855   -4.2894    1.3701 H         1 <0>         0.1391
     39 H15        -0.1859   -4.3911    0.5961 H         1 <0>         0.1436
     40 H16        -1.0696   -6.3270    2.7175 H         1 <0>         0.1070
     41 H17         0.5508   -6.2799    1.9824 H         1 <0>         0.1135
     42 H18         1.2259  -11.2242    5.3224 H         1 <0>         0.1871
     43 H19         0.9582   -8.5942    7.1685 H         1 <0>         0.3668
     44 H20         2.3992   -9.3080    6.7443 H         1 <0>         0.3796
     45 H21         0.7049  -12.8588    4.0758 H         1 <0>         0.1217
     46 H22         0.1003  -14.7372    2.6066 H         1 <0>         0.1279
     47 H23        -0.8899  -14.3060    0.3961 H         1 <0>         0.1257
     48 H24        -1.2821  -11.9967   -0.3561 H         1 <0>         0.1250
     49 H25        -0.6942  -10.1063    1.1044 H         1 <0>         0.1251
     50 H26        -1.8502   -4.2352    3.8137 H         1 <0>         0.3930
     51 H27        -1.1621   -2.0815    2.1189 H         1 <0>         0.4274
@<TRIPOS>BOND
     1    1    2 1
     2    1   26 1
     3    1   27 1
     4    1   28 1
     5    2    7 1
     6    2    3 1
     7    2   29 1
     8    3    4 1
     9    3   30 1
    10    3   31 1
    11    4    5 1
    12    4   32 1
    13    4   33 1
    14    5    6 1
    15    5    8 1
    16    5   51 1
    17    6    7 1
    18    6   34 1
    19    6   35 1
    20    7   36 1
    21    7   37 1
    22    8    9 1
    23    8   38 1
    24    8   39 1
    25    9   10 1
    26    9   11 1
    27    9   25 1
    28   11   12 1
    29   11   40 1
    30   11   41 1
    31   12   13 1
    32   13   17 1
    33   13   14 2
    34   14   15 1
    35   15   16 2
    36   15   19 1
    37   16   17 1
    38   16   42 1
    39   17   18 1
    40   18   43 1
    41   18   44 1
    42   19   24 ar
    43   19   20 ar
    44   20   21 ar
    45   20   45 1
    46   21   22 ar
    47   21   46 1
    48   22   23 ar
    49   22   47 1
    50   23   24 ar
    51   23   48 1
    52   24   49 1
    53   25   50 1
@<TRIPOS>MOLECULE
ZINC03459236
   56    58     0     0     0
SMALL
USER_CHARGES
N-(2,3-dimethylphenyl)-2-(7,7,9-trimethyl-1,3-dioxo-2,4-diazaspiro[4.5]dec-2-yl)-acetamide
@<TRIPOS>ATOM
      1 C1         -9.0543    0.9037    9.6546 C.3       1 <0>        -0.1163
      2 C2         -7.6198    1.2294    9.3272 C.ar      1 <0>        -0.0670
      3 C3         -7.0318    2.3650    9.8538 C.ar      1 <0>        -0.1330
      4 C4         -5.7161    2.6676    9.5554 C.ar      1 <0>        -0.1002
      5 C5         -4.9846    1.8357    8.7303 C.ar      1 <0>        -0.1312
      6 C6         -5.5720    0.6948    8.1999 C.ar      1 <0>         0.1493
      7 C7         -6.8958    0.3970    8.4967 C.ar      1 <0>        -0.1161
      8 C8         -7.5392   -0.8369    7.9183 C.3       1 <0>        -0.1174
      9 N1         -4.8337   -0.1499    7.3638 N.am      1 <0>        -0.6637
     10 C9         -3.7843    0.3360    6.6717 C.2       1 <0>         0.5009
     11 O1         -3.5404    1.5239    6.6947 O.2       1 <0>        -0.5031
     12 C10        -2.9139   -0.5965    5.8693 C.3       1 <0>         0.1007
     13 N2         -1.8508    0.1697    5.2151 N.am      1 <0>        -0.5658
     14 C11        -1.9576    0.7170    3.9850 C.2       1 <0>         0.5389
     15 O2         -2.8815    0.5650    3.2138 O.2       1 <0>        -0.4505
     16 C12        -0.6935    1.5160    3.7786 C.3       1 <0>         0.1408
     17 C13         0.0335    1.0585    2.5219 C.3       1 <0>        -0.1071
     18 C14        -0.7047    1.5581    1.2792 C.3       1 <0>        -0.0959
     19 H1         -1.7243    1.1810    1.2761 H         1 <0>         0.0899
     20 C15        -0.7002    3.0852    1.2921 C.3       1 <0>        -0.1032
     21 C16        -1.4418    3.6215    2.5113 C.3       1 <0>        -0.0536
     22 C17        -0.9510    3.0083    3.8109 C.3       1 <0>        -0.1043
     23 C18        -2.9490    3.4072    2.3460 C.3       1 <0>        -0.1598
     24 C19        -1.1960    5.1445    2.5792 C.3       1 <0>        -0.1457
     25 C20         0.0201    1.0592    0.0252 C.3       1 <0>        -0.1463
     26 N3          0.1296    1.1552    4.9559 N.am      1 <0>        -0.7231
     27 C21        -0.6535    0.4142    5.7583 C.2       1 <0>         0.7098
     28 O3         -0.3129    0.0108    6.8533 O.2       1 <0>        -0.5395
     29 H2         -9.7094    1.3647    8.9155 H         1 <0>         0.0718
     30 H3         -9.1939   -0.1772    9.6400 H         1 <0>         0.0691
     31 H4         -9.2971    1.2880   10.6453 H         1 <0>         0.0683
     32 H5         -7.6014    3.0167   10.4998 H         1 <0>         0.1232
     33 H6         -5.2597    3.5552    9.9682 H         1 <0>         0.1253
     34 H7         -3.9567    2.0722    8.4981 H         1 <0>         0.1427
     35 H8         -7.3890   -1.6769    8.5965 H         1 <0>         0.0723
     36 H9         -8.6071   -0.6623    7.7871 H         1 <0>         0.0753
     37 H10        -7.0869   -1.0640    6.9529 H         1 <0>         0.0621
     38 H11        -5.0772   -1.0853    7.2822 H         1 <0>         0.4129
     39 H12        -3.5186   -1.0976    5.1134 H         1 <0>         0.1308
     40 H13        -2.4709   -1.3402    6.5317 H         1 <0>         0.1332
     41 H14         0.0762   -0.0320    2.5031 H         1 <0>         0.0741
     42 H15         1.0494    1.4554    2.5241 H         1 <0>         0.0872
     43 H16         0.3328    3.4422    1.3092 H         1 <0>         0.0652
     44 H17        -1.1808    3.4552    0.3825 H         1 <0>         0.0700
     45 H18        -1.6906    3.2173    4.6009 H         1 <0>         0.0759
     46 H19        -0.0235    3.5177    4.1154 H         1 <0>         0.0847
     47 H20        -3.4758    3.8757    3.1773 H         1 <0>         0.0515
     48 H21        -3.2789    3.8546    1.4084 H         1 <0>         0.0566
     49 H22        -3.1650    2.3389    2.3348 H         1 <0>         0.0782
     50 H23        -0.1304    5.3352    2.7065 H         1 <0>         0.0552
     51 H24        -1.5406    5.6097    1.6557 H         1 <0>         0.0598
     52 H25        -1.7435    5.5636    3.4234 H         1 <0>         0.0557
     53 H26         0.0382   -0.0306    0.0254 H         1 <0>         0.0555
     54 H27         1.0416    1.4395    0.0204 H         1 <0>         0.0557
     55 H28        -0.5038    1.4137   -0.8625 H         1 <0>         0.0597
     56 H29         1.0514    1.4124    5.1044 H         1 <0>         0.4408
@<TRIPOS>BOND
     1    1    2 1
     2    1   29 1
     3    1   30 1
     4    1   31 1
     5    2    7 ar
     6    2    3 ar
     7    3    4 ar
     8    3   32 1
     9    4    5 ar
    10    4   33 1
    11    5    6 ar
    12    5   34 1
    13    6    7 ar
    14    6    9 1
    15    7    8 1
    16    8   35 1
    17    8   36 1
    18    8   37 1
    19    9   10 am
    20    9   38 1
    21   10   11 2
    22   10   12 1
    23   12   13 1
    24   12   39 1
    25   12   40 1
    26   13   27 am
    27   13   14 am
    28   14   15 2
    29   14   16 1
    30   16   22 1
    31   16   17 1
    32   16   26 1
    33   17   18 1
    34   17   41 1
    35   17   42 1
    36   18   19 1
    37   18   20 1
    38   18   25 1
    39   20   21 1
    40   20   43 1
    41   20   44 1
    42   21   22 1
    43   21   23 1
    44   21   24 1
    45   22   45 1
    46   22   46 1
    47   23   47 1
    48   23   48 1
    49   23   49 1
    50   24   50 1
    51   24   51 1
    52   24   52 1
    53   25   53 1
    54   25   54 1
    55   25   55 1
    56   26   27 am
    57   26   56 1
    58   27   28 2
@<TRIPOS>MOLECULE
ZINC15262528
   56    58     0     0     0
SMALL
USER_CHARGES
tetramethoxy-dimethyl-BLAHdiol
@<TRIPOS>ATOM
      1 C1          0.5889   -0.1025    1.3509 C.3       1 <0>        -0.1507
      2 C2          0.1401    1.0175    0.4101 C.3       1 <0>        -0.0823
      3 H1         -0.9453    1.1078    0.4527 H         1 <0>         0.0758
      4 C3          0.5608    0.6740   -1.0177 C.3       1 <0>        -0.0812
      5 C4         -0.4595    1.2219   -1.9945 C.ar      1 <0>        -0.0414
      6 C5         -1.6607    0.5794   -2.1874 C.ar      1 <0>        -0.1381
      7 C6         -2.5735    1.0793   -3.1075 C.ar      1 <0>         0.1105
      8 C7         -2.2705    2.2265   -3.8327 C.ar      1 <0>         0.0407
      9 C8         -1.0640    2.8807   -3.6325 C.ar      1 <0>         0.1279
     10 C9         -0.1488    2.3840   -2.6954 C.ar      1 <0>        -0.0590
     11 C10         1.1161    3.1023   -2.4516 C.ar      1 <0>        -0.0601
     12 C11         1.4329    3.5896   -1.1853 C.ar      1 <0>        -0.0392
     13 C12         2.6365    4.2100   -0.9457 C.ar      1 <0>        -0.1374
     14 C13         3.5408    4.3910   -1.9851 C.ar      1 <0>         0.1085
     15 C14         3.2267    3.9422   -3.2632 C.ar      1 <0>         0.0454
     16 C15         2.0220    3.2980   -3.5020 C.ar      1 <0>         0.1277
     17 O1          1.7207    2.8577   -4.7527 O.3       1 <0>        -0.3054
     18 C16         2.0107    1.4896   -5.0463 C.3       1 <0>         0.0342
     19 O2          4.1054    4.1361   -4.2843 O.3       1 <0>        -0.3141
     20 C17         5.1509    3.1731   -4.4322 C.3       1 <0>         0.0331
     21 O3          4.7309    5.0065   -1.7527 O.3       1 <0>        -0.4821
     22 C18         0.3919    3.4696   -0.0904 C.3       1 <0>        -0.0829
     23 C19         0.7734    2.3337    0.8572 C.3       1 <0>        -0.0806
     24 H2          1.8578    2.2243    0.8675 H         1 <0>         0.0739
     25 C20         0.2884    2.6714    2.2685 C.3       1 <0>        -0.1520
     26 O4         -0.7702    4.0014   -4.3443 O.3       1 <0>        -0.3121
     27 C21        -1.2540    5.2431   -3.8284 C.3       1 <0>         0.0399
     28 O5         -3.1606    2.7086   -4.7423 O.3       1 <0>        -0.3216
     29 C22        -3.0647    2.2024   -6.0752 C.3       1 <0>         0.0377
     30 O6         -3.7627    0.4479   -3.2983 O.3       1 <0>        -0.4829
     31 H3          1.6731   -0.2040    1.3037 H         1 <0>         0.0554
     32 H4          0.2906    0.1386    2.3712 H         1 <0>         0.0619
     33 H5          0.1227   -1.0401    1.0480 H         1 <0>         0.0562
     34 H6          0.6229   -0.4087   -1.1272 H         1 <0>         0.0796
     35 H7          1.5353    1.1161   -1.2251 H         1 <0>         0.0771
     36 H8         -1.8933   -0.3127   -1.6248 H         1 <0>         0.1401
     37 H9          2.8786    4.5555    0.0485 H         1 <0>         0.1405
     38 H10         1.6450    1.2467   -6.0440 H         1 <0>         0.0951
     39 H11         3.0881    1.3297   -5.0053 H         1 <0>         0.0432
     40 H12         1.5201    0.8489   -4.3136 H         1 <0>         0.0452
     41 H13         5.7049    3.0919   -3.4970 H         1 <0>         0.0422
     42 H14         4.7195    2.2044   -4.6843 H         1 <0>         0.0439
     43 H15         5.8256    3.4886   -5.2280 H         1 <0>         0.0981
     44 H16         5.4434    4.4029   -1.5013 H         1 <0>         0.3881
     45 H17         0.3413    4.4052    0.4665 H         1 <0>         0.0813
     46 H18        -0.5805    3.2592   -0.5356 H         1 <0>         0.0786
     47 H19        -0.7947    2.7932    2.2610 H         1 <0>         0.0566
     48 H20         0.5584    1.8634    2.9485 H         1 <0>         0.0614
     49 H21         0.7560    3.5980    2.6014 H         1 <0>         0.0567
     50 H22        -1.0256    6.0429   -4.5329 H         1 <0>         0.0952
     51 H23        -2.3329    5.1816   -3.6860 H         1 <0>         0.0506
     52 H24        -0.7727    5.4519   -2.8730 H         1 <0>         0.0435
     53 H25        -2.0523    2.3541   -6.4495 H         1 <0>         0.0516
     54 H26        -3.2969    1.1374   -6.0769 H         1 <0>         0.0408
     55 H27        -3.7718    2.7294   -6.7158 H         1 <0>         0.0957
     56 H28        -3.7415   -0.2313   -3.9864 H         1 <0>         0.3892
@<TRIPOS>BOND
     1    1    2 1
     2    1   31 1
     3    1   32 1
     4    1   33 1
     5    2    3 1
     6    2   23 1
     7    2    4 1
     8    4    5 1
     9    4   34 1
    10    4   35 1
    11    5   10 ar
    12    5    6 ar
    13    6    7 ar
    14    6   36 1
    15    7    8 ar
    16    7   30 1
    17    8    9 ar
    18    8   28 1
    19    9   10 ar
    20    9   26 1
    21   10   11 1
    22   11   16 ar
    23   11   12 ar
    24   12   13 ar
    25   12   22 1
    26   13   14 ar
    27   13   37 1
    28   14   15 ar
    29   14   21 1
    30   15   16 ar
    31   15   19 1
    32   16   17 1
    33   17   18 1
    34   18   38 1
    35   18   39 1
    36   18   40 1
    37   19   20 1
    38   20   41 1
    39   20   42 1
    40   20   43 1
    41   21   44 1
    42   22   23 1
    43   22   45 1
    44   22   46 1
    45   23   24 1
    46   23   25 1
    47   25   47 1
    48   25   48 1
    49   25   49 1
    50   26   27 1
    51   27   50 1
    52   27   51 1
    53   27   52 1
    54   28   29 1
    55   29   53 1
    56   29   54 1
    57   29   55 1
    58   30   56 1
@<TRIPOS>MOLECULE
ZINC35685181
   47    50     0     0     0
SMALL
USER_CHARGES

@<TRIPOS>ATOM
      1 C1         -1.2478    1.0882   -0.6206 C.3       1 <0>        -0.1172
      2 C2         -1.0311   -0.4010   -0.5417 C.ar      1 <0>        -0.0875
      3 C3         -0.8904   -1.1393   -1.7031 C.ar      1 <0>        -0.1151
      4 C4         -0.6918   -2.5033   -1.6369 C.ar      1 <0>        -0.1023
      5 C5         -0.6327   -3.1370   -0.3968 C.ar      1 <0>        -0.0081
      6 C6         -0.7747   -2.3879    0.7700 C.ar      1 <0>        -0.1161
      7 C7         -0.9680   -1.0237    0.6919 C.ar      1 <0>        -0.1140
      8 C8         -0.4200   -4.6027   -0.3192 C.2       1 <0>        -0.2025
      9 C9         -1.1310   -5.5924   -1.0320 C.2       1 <0>         0.0925
     10 N1         -0.6544   -6.7651   -0.6959 N.2       1 <0>        -0.2623
     11 N2          0.3670   -6.5857    0.2311 N.pl3     1 <0>        -0.3736
     12 C10         0.5084   -5.2515    0.4539 C.2       1 <0>         0.3261
     13 N3          1.4576   -4.7439    1.3360 N.am      1 <0>        -0.6370
     14 C11         2.4347   -5.5811    1.7528 C.2       1 <0>         0.5167
     15 O1          3.2153   -5.2052    2.6016 O.2       1 <0>        -0.4969
     16 C12         2.5752   -6.9663    1.1875 C.3       1 <0>        -0.1505
     17 C13         1.2024   -7.5883    0.8973 C.3       1 <0>         0.1529
     18 H1          1.3308   -8.4504    0.2428 H         1 <0>         0.1525
     19 C14         0.5456   -8.0196    2.1833 C.2       1 <0>         0.4967
     20 O2         -0.5173   -7.5373    2.5129 O.2       1 <0>        -0.4816
     21 N4          1.1394   -8.9413    2.9671 N.am      1 <0>        -0.6651
     22 C15         0.5872   -9.2611    4.2124 C.ar      1 <0>         0.1487
     23 C16         0.6951  -10.5533    4.7103 C.ar      1 <0>        -0.1314
     24 C17         0.1497  -10.8663    5.9398 C.ar      1 <0>        -0.0880
     25 C18        -0.5041   -9.8950    6.6756 C.ar      1 <0>        -0.0855
     26 C19        -0.6136   -8.6066    6.1828 C.ar      1 <0>        -0.0179
     27 C20        -0.0646   -8.2860    4.9552 C.ar      1 <0>        -0.1074
     28 Cl1        -1.4358   -7.3905    7.1096 Cl        1 <0>        -0.0580
     29 C21        -1.0989  -10.2405    8.0165 C.3       1 <0>        -0.1205
     30 H2         -0.2835    1.5964   -0.6163 H         1 <0>         0.0707
     31 H3         -1.7816    1.3296   -1.5398 H         1 <0>         0.0671
     32 H4         -1.8349    1.4159    0.2373 H         1 <0>         0.0665
     33 H5         -0.9364   -0.6472   -2.6634 H         1 <0>         0.1239
     34 H6         -0.5828   -3.0789   -2.5443 H         1 <0>         0.1253
     35 H7         -0.7296   -2.8737    1.7336 H         1 <0>         0.1171
     36 H8         -1.0745   -0.4418    1.5955 H         1 <0>         0.1230
     37 H9         -1.9316   -5.4131   -1.7343 H         1 <0>         0.1970
     38 H10         1.4200   -3.8237    1.6403 H         1 <0>         0.4316
     39 H11         3.1531   -6.9181    0.2645 H         1 <0>         0.1365
     40 H12         3.1038   -7.5929    1.9058 H         1 <0>         0.1368
     41 H13         1.9495   -9.3830    2.6679 H         1 <0>         0.4158
     42 H14         1.2049  -11.3128    4.1361 H         1 <0>         0.1356
     43 H15         0.2336  -11.8710    6.3270 H         1 <0>         0.1396
     44 H16        -0.1463   -7.2794    4.5726 H         1 <0>         0.1416
     45 H17        -0.3565  -10.0740    8.7970 H         1 <0>         0.0774
     46 H18        -1.9684   -9.6099    8.2016 H         1 <0>         0.0743
     47 H19        -1.4019  -11.2875    8.0206 H         1 <0>         0.0729
@<TRIPOS>BOND
     1    1    2 1
     2    1   30 1
     3    1   31 1
     4    1   32 1
     5    2    7 ar
     6    2    3 ar
     7    3    4 ar
     8    3   33 1
     9    4    5 ar
    10    4   34 1
    11    5    6 ar
    12    5    8 1
    13    6    7 ar
    14    6   35 1
    15    7   36 1
    16    8   12 2
    17    8    9 1
    18    9   10 2
    19    9   37 1
    20   10   11 1
    21   11   17 1
    22   11   12 1
    23   12   13 1
    24   13   14 am
    25   13   38 1
    26   14   15 2
    27   14   16 1
    28   16   17 1
    29   16   39 1
    30   16   40 1
    31   17   18 1
    32   17   19 1
    33   19   20 2
    34   19   21 am
    35   21   22 1
    36   21   41 1
    37   22   27 ar
    38   22   23 ar
    39   23   24 ar
    40   23   42 1
    41   24   25 ar
    42   24   43 1
    43   25   26 ar
    44   25   29 1
    45   26   27 ar
    46   26   28 1
    47   27   44 1
    48   29   45 1
    49   29   46 1
    50   29   47 1
@<TRIPOS>MOLECULE
ZINC49472121
   46    49     0     0     0
SMALL
USER_CHARGES

@<TRIPOS>ATOM
      1 C1         -0.0506    1.5755    0.0275 C.3       1 <0>        -0.1464
      2 C2         -0.0205    0.0458    0.0278 C.3       1 <0>        -0.0683
      3 C3         -1.4311   -0.4844    0.0334 C.2       1 <0>        -0.1865
      4 C4         -2.0302   -0.8238   -1.1363 C.2       1 <0>         0.0103
      5 C5         -3.3996   -1.3358   -1.0975 C.ar      1 <0>        -0.1313
      6 C6         -4.0677   -1.7022   -2.2725 C.ar      1 <0>        -0.0378
      7 C7         -5.3442   -2.1771   -2.2068 C.ar      1 <0>        -0.1646
      8 C8         -5.9919   -2.3008   -0.9762 C.ar      1 <0>         0.1884
      9 C9         -5.3472   -1.9433    0.1974 C.ar      1 <0>        -0.1662
     10 C10        -4.0470   -1.4585    0.1480 C.ar      1 <0>         0.2045
     11 N1         -3.3817   -1.0964    1.3005 N.am      1 <0>        -0.6303
     12 H1         -3.8285   -1.1817    2.1573 H         1 <0>         0.4169
     13 C11        -2.1210   -0.6314    1.2540 C.2       1 <0>         0.5428
     14 O1         -1.5621   -0.3249    2.2931 O.2       1 <0>        -0.5325
     15 N2         -7.2974   -2.7872   -0.9276 N.am      1 <0>        -0.6536
     16 C12        -7.6917   -3.5566    0.1063 C.2       1 <0>         0.5780
     17 O2         -6.9363   -3.7583    1.0364 O.2       1 <0>        -0.4780
     18 C13        -9.0462   -4.1565    0.1087 C.2       1 <0>         0.0834
     19 C14        -9.4157   -4.9213    1.1655 C.2       1 <0>        -0.2093
     20 C15       -10.7580   -5.5275    1.1513 C.2       1 <0>         0.4196
     21 O3        -11.2479   -6.0346    2.1450 O.2       1 <0>        -0.4364
     22 C16       -11.4747   -5.4836   -0.1391 C.ar      1 <0>        -0.2229
     23 C17       -12.6277   -6.2349   -0.3585 C.ar      1 <0>        -0.0287
     24 C18       -13.2565   -6.1692   -1.5713 C.ar      1 <0>        -0.1438
     25 C19       -12.7518   -5.3610   -2.5804 C.ar      1 <0>        -0.0526
     26 C20       -11.6141   -4.6095   -2.3803 C.ar      1 <0>        -0.1380
     27 C21       -10.9596   -4.6574   -1.1531 C.ar      1 <0>         0.1477
     28 O4         -9.8566   -3.9159   -0.9311 O.3       1 <0>        -0.2230
     29 C22        -1.3005   -0.6757   -2.4465 C.3       1 <0>        -0.1282
     30 H2          0.9697    1.9590    0.0235 H         1 <0>         0.0611
     31 H3         -0.5750    1.9285   -0.8605 H         1 <0>         0.0531
     32 H4         -0.5680    1.9289    0.9194 H         1 <0>         0.0578
     33 H5          0.4969   -0.3075   -0.8642 H         1 <0>         0.0775
     34 H6          0.5039   -0.3071    0.9158 H         1 <0>         0.0809
     35 H7         -3.5733   -1.6086   -3.2282 H         1 <0>         0.1438
     36 H8         -5.8584   -2.4593   -3.1137 H         1 <0>         0.1371
     37 H9         -5.8539   -2.0411    1.1461 H         1 <0>         0.1512
     38 H10        -7.9219   -2.5719   -1.6379 H         1 <0>         0.4244
     39 H11        -8.7436   -5.0820    1.9954 H         1 <0>         0.1787
     40 H12       -13.0222   -6.8656    0.4244 H         1 <0>         0.1439
     41 H13       -14.1505   -6.7498   -1.7448 H         1 <0>         0.1395
     42 H14       -13.2566   -5.3207   -3.5343 H         1 <0>         0.1439
     43 H15       -11.2316   -3.9846   -3.1737 H         1 <0>         0.1468
     44 H16        -0.7634   -1.5977   -2.6694 H         1 <0>         0.0865
     45 H17        -2.0182   -0.4720   -3.2411 H         1 <0>         0.0776
     46 H18        -0.5919    0.1496   -2.3764 H         1 <0>         0.0832
@<TRIPOS>BOND
     1    1    2 1
     2    1   30 1
     3    1   31 1
     4    1   32 1
     5    2    3 1
     6    2   33 1
     7    2   34 1
     8    3   13 1
     9    3    4 2
    10    4    5 1
    11    4   29 1
    12    5   10 ar
    13    5    6 ar
    14    6    7 ar
    15    6   35 1
    16    7    8 ar
    17    7   36 1
    18    8    9 ar
    19    8   15 1
    20    9   10 ar
    21    9   37 1
    22   10   11 1
    23   11   12 1
    24   11   13 am
    25   13   14 2
    26   15   16 am
    27   15   38 1
    28   16   17 2
    29   16   18 1
    30   18   28 1
    31   18   19 2
    32   19   20 1
    33   19   39 1
    34   20   21 2
    35   20   22 1
    36   22   27 ar
    37   22   23 ar
    38   23   24 ar
    39   23   40 1
    40   24   25 ar
    41   24   41 1
    42   25   26 ar
    43   25   42 1
    44   26   27 ar
    45   26   43 1
    46   27   28 1
    47   29   44 1
    48   29   45 1
    49   29   46 1
@<TRIPOS>MOLECULE
ZINC13122238
   39    42     0     0     0
SMALL
USER_CHARGES

@<TRIPOS>ATOM
      1 C1          0.2911    1.5651   -0.6897 C.ar      1 <0>        -0.1168
      2 C2          1.3183    2.2447   -0.0552 C.ar      1 <0>        -0.0652
      3 C3          2.3424    1.5499    0.5572 C.ar      1 <0>        -0.1204
      4 C4          2.3487    0.1625    0.5405 C.ar      1 <0>         0.1927
      5 C5          1.3105   -0.5292   -0.1009 C.ar      1 <0>        -0.1470
      6 C6          0.2808    0.1874   -0.7164 C.ar      1 <0>        -0.0733
      7 C7          1.3060   -2.0034   -0.1259 C.2       1 <0>         0.5615
      8 O1          2.3489   -2.6164   -0.0070 O.2       1 <0>        -0.4286
      9 N1          0.1456   -2.6712   -0.2806 N.am      1 <0>        -0.5116
     10 N2          0.1417   -3.9610   -0.3025 N.2       1 <0>        -0.0943
     11 C8         -0.9728   -4.6100   -0.5477 C.2       1 <0>         0.0491
     12 C9         -2.3359   -4.0518   -0.7011 C.ar      1 <0>        -0.1638
     13 C10        -2.8642   -2.7704   -0.6438 C.ar      1 <0>        -0.0483
     14 C11        -4.2197   -2.5789   -0.8352 C.ar      1 <0>        -0.1003
     15 C12        -5.0489   -3.6624   -1.0836 C.ar      1 <0>        -0.0588
     16 C13        -4.5394   -4.9413   -1.1436 C.ar      1 <0>        -0.0804
     17 C14        -3.1709   -5.1591   -0.9530 C.ar      1 <0>         0.1461
     18 N3         -2.4212   -6.2928   -0.9588 N.2       1 <0>        -0.5273
     19 C15        -1.1531   -6.0622   -0.7401 C.2       1 <0>         0.4354
     20 O2         -0.1730   -6.9963   -0.6947 O.3       1 <0>        -0.4194
     21 Br1        -4.9456   -0.8345   -0.7575 Br        1 <0>        -0.0340
     22 N4          3.3838   -0.5418    1.1589 N.pl3     1 <0>        -0.4112
     23 C16         3.2334   -1.4851    2.1362 C.2       1 <0>         0.0092
     24 C17         4.4570   -1.9361    2.4778 C.2       1 <0>        -0.1844
     25 C18         5.3985   -1.2486    1.6848 C.2       1 <0>        -0.1852
     26 C19         4.7155   -0.4068    0.8835 C.2       1 <0>        -0.0060
     27 H1         -0.5077    2.1177   -1.1619 H         1 <0>         0.1436
     28 H2          1.3182    3.3246   -0.0398 H         1 <0>         0.1443
     29 H3          3.1397    2.0870    1.0494 H         1 <0>         0.1448
     30 H4         -0.5222   -0.3379   -1.2120 H         1 <0>         0.1320
     31 H5         -0.6866   -2.1820   -0.3755 H         1 <0>         0.3892
     32 H6         -2.2192   -1.9261   -0.4500 H         1 <0>         0.1190
     33 H7         -6.1067   -3.5020   -1.2314 H         1 <0>         0.1476
     34 H8         -5.1970   -5.7758   -1.3375 H         1 <0>         0.1475
     35 H9         -0.4835   -7.8997   -0.8450 H         1 <0>         0.4220
     36 H10         2.2963   -1.8123    2.5618 H         1 <0>         0.1509
     37 H11         4.6761   -2.6864    3.2231 H         1 <0>         0.1387
     38 H12         6.4707   -1.3760    1.7117 H         1 <0>         0.1404
     39 H13         5.1465    0.2606    0.1519 H         1 <0>         0.1625
@<TRIPOS>BOND
     1    1    6 ar
     2    1    2 ar
     3    1   27 1
     4    2    3 ar
     5    2   28 1
     6    3    4 ar
     7    3   29 1
     8    4    5 ar
     9    4   22 1
    10    5    6 ar
    11    5    7 1
    12    6   30 1
    13    7    8 2
    14    7    9 am
    15    9   10 1
    16    9   31 1
    17   10   11 2
    18   11   19 1
    19   11   12 1
    20   12   17 ar
    21   12   13 ar
    22   13   14 ar
    23   13   32 1
    24   14   15 ar
    25   14   21 1
    26   15   16 ar
    27   15   33 1
    28   16   17 ar
    29   16   34 1
    30   17   18 1
    31   18   19 2
    32   19   20 1
    33   20   35 1
    34   22   26 1
    35   22   23 1
    36   23   24 2
    37   23   36 1
    38   24   25 1
    39   24   37 1
    40   25   26 2
    41   25   38 1
    42   26   39 1
@<TRIPOS>MOLECULE
ZINC02147632
   31    33     0     0     0
SMALL
USER_CHARGES
[2-(4,6-dichlorobenzothiazol-2-yl)sulfanylphenyl]aminoformaldehyde oxime
@<TRIPOS>ATOM
      1 C1         -3.6717    1.9345    0.2049 C.ar      1 <0>        -0.0547
      2 C2         -4.8416    1.1972    0.1810 C.ar      1 <0>        -0.1552
      3 C3         -4.7931   -0.1841    0.1842 C.ar      1 <0>        -0.0310
      4 C4         -3.5680   -0.8351    0.2062 C.ar      1 <0>        -0.1982
      5 C5         -2.3881   -0.0912    0.2356 C.ar      1 <0>         0.2406
      6 C6         -2.4467    1.2946    0.2322 C.ar      1 <0>        -0.1441
      7 N1         -1.1486   -0.7414    0.2627 N.pl3     1 <0>        -0.6417
      8 C7         -0.0547   -0.1162    0.8204 C.2       1 <0>         0.3317
      9 N2         -0.1959    1.0193    1.4206 N.2       1 <0>        -0.3938
     10 O1          0.9283    1.6618    1.9937 O.3       1 <0>        -0.4106
     11 S1         -3.5027   -2.5959    0.2030 S.3       1 <0>         0.1550
     12 C8         -3.0371   -2.8878    1.8771 C.2       1 <0>         0.1072
     13 N3         -2.7324   -2.0160    2.8118 N.2       1 <0>        -0.4717
     14 C9         -2.3937   -2.3865    4.0664 C.ar      1 <0>         0.0995
     15 C10        -2.3766   -3.7784    4.3104 C.ar      1 <0>        -0.1345
     16 S2         -2.8514   -4.4454    2.7336 S.3       1 <0>         0.0639
     17 C11        -2.0481   -4.3128    5.5310 C.ar      1 <0>        -0.0503
     18 C12        -1.7171   -3.4713    6.5791 C.ar      1 <0>        -0.0074
     19 C13        -1.7233   -2.0984    6.3759 C.ar      1 <0>        -0.0966
     20 C14        -2.0509   -1.5560    5.1591 C.ar      1 <0>         0.0277
     21 Cl1        -2.0433    0.1682    4.9577 Cl        1 <0>        -0.0268
     22 Cl2        -1.2990   -4.1263    8.1315 Cl        1 <0>        -0.0346
     23 H1         -3.7154    3.0136    0.2019 H         1 <0>         0.1298
     24 H2         -5.7960    1.7022    0.1601 H         1 <0>         0.1300
     25 H3         -5.7086   -0.7567    0.1659 H         1 <0>         0.1350
     26 H4         -1.5353    1.8736    0.2511 H         1 <0>         0.1508
     27 H5         -1.0599   -1.6321   -0.1111 H         1 <0>         0.4245
     28 H6          0.9207   -0.5753    0.7558 H         1 <0>         0.1457
     29 H7          0.7241    2.5053    2.4203 H         1 <0>         0.4033
     30 H8         -2.0476   -5.3835    5.6729 H         1 <0>         0.1515
     31 H9         -1.4649   -1.4424    7.1941 H         1 <0>         0.1550
@<TRIPOS>BOND
     1    1    6 ar
     2    1    2 ar
     3    1   23 1
     4    2    3 ar
     5    2   24 1
     6    3    4 ar
     7    3   25 1
     8    4    5 ar
     9    4   11 1
    10    5    6 ar
    11    5    7 1
    12    6   26 1
    13    7    8 1
    14    7   27 1
    15    8    9 2
    16    8   28 1
    17    9   10 1
    18   10   29 1
    19   11   12 1
    20   12   16 1
    21   12   13 2
    22   13   14 1
    23   14   20 ar
    24   14   15 ar
    25   15   16 1
    26   15   17 ar
    27   17   18 ar
    28   17   30 1
    29   18   19 ar
    30   18   22 1
    31   19   20 ar
    32   19   31 1
    33   20   21 1
@<TRIPOS>MOLECULE
ZINC10060993
   39    42     0     0     0
SMALL
USER_CHARGES
N-[3-(1H-benzoimidazol-2-yl)phenyl]-2-(5-chloro-2-thienyl)-acetamide
@<TRIPOS>ATOM
      1 C1          3.2122   13.0208    6.6418 C.ar      1 <0>        -0.0978
      2 C2          3.1377   13.3169    5.2880 C.ar      1 <0>        -0.1276
      3 C3          2.9203   12.3296    4.3696 C.ar      1 <0>        -0.0614
      4 C4          2.7706   11.0047    4.7927 C.ar      1 <0>         0.0481
      5 C5          2.8462   10.7048    6.1645 C.ar      1 <0>         0.0533
      6 C6          3.0673   11.7223    7.0825 C.ar      1 <0>        -0.1140
      7 N1          2.6580    9.3409    6.2718 N.pl3     1 <0>        -0.5982
      8 H1          2.6484    8.8079    7.1179 H         1 <0>         0.4282
      9 C7          2.4870    8.8549    5.0037 C.2       1 <0>         0.3234
     10 N2          2.5508    9.8379    4.1396 N.2       1 <0>        -0.4705
     11 C8          2.2581    7.4342    4.6608 C.ar      1 <0>        -0.0113
     12 C9          2.2092    6.4698    5.6687 C.ar      1 <0>        -0.1171
     13 C10         1.9960    5.1451    5.3462 C.ar      1 <0>        -0.0968
     14 C11         1.8247    4.7690    4.0270 C.ar      1 <0>        -0.1279
     15 C12         1.8775    5.7208    3.0161 C.ar      1 <0>         0.1450
     16 C13         2.0912    7.0542    3.3300 C.ar      1 <0>        -0.0735
     17 N3          1.7094    5.3343    1.6816 N.am      1 <0>        -0.6744
     18 C14         2.3944    5.9637    0.7063 C.2       1 <0>         0.5098
     19 O1          3.0920    6.9188    0.9746 O.2       1 <0>        -0.4935
     20 C15         2.2934    5.4807   -0.7176 C.3       1 <0>        -0.0536
     21 C16         3.1485    6.3487   -1.6044 C.2       1 <0>        -0.1314
     22 C17         4.4509    6.1974   -1.9464 C.2       1 <0>        -0.1331
     23 C18         5.0370    7.1283   -2.7842 C.2       1 <0>        -0.1372
     24 C19         4.2900    8.1655   -3.2386 C.2       1 <0>        -0.1189
     25 S1          2.7081    7.8429   -2.4765 S.3       1 <0>         0.1091
     26 Cl1         4.7520    9.4679   -4.2892 Cl        1 <0>         0.0171
     27 H2          3.3846   13.8131    7.3553 H         1 <0>         0.1317
     28 H3          3.2531   14.3385    4.9572 H         1 <0>         0.1312
     29 H4          2.8637   12.5714    3.3186 H         1 <0>         0.1308
     30 H5          3.1263   11.4978    8.1373 H         1 <0>         0.1240
     31 H6          2.3384    6.7603    6.7008 H         1 <0>         0.1223
     32 H7          1.9581    4.4004    6.1275 H         1 <0>         0.1355
     33 H8          1.6534    3.7314    3.7810 H         1 <0>         0.1325
     34 H9          2.1277    7.7962    2.5460 H         1 <0>         0.1576
     35 H10         1.0999    4.6134    1.4585 H         1 <0>         0.4145
     36 H11         1.2558    5.5354   -1.0471 H         1 <0>         0.1165
     37 H12         2.6394    4.4487   -0.7766 H         1 <0>         0.1248
     38 H13         5.0216    5.3596   -1.5737 H         1 <0>         0.1401
     39 H14         6.0734    7.0314   -3.0720 H         1 <0>         0.1427
@<TRIPOS>BOND
     1    1    6 ar
     2    1    2 ar
     3    1   27 1
     4    2    3 ar
     5    2   28 1
     6    3    4 ar
     7    3   29 1
     8    4   10 1
     9    4    5 ar
    10    5    6 ar
    11    5    7 1
    12    6   30 1
    13    7    8 1
    14    7    9 1
    15    9   10 2
    16    9   11 1
    17   11   16 ar
    18   11   12 ar
    19   12   13 ar
    20   12   31 1
    21   13   14 ar
    22   13   32 1
    23   14   15 ar
    24   14   33 1
    25   15   16 ar
    26   15   17 1
    27   16   34 1
    28   17   18 am
    29   17   35 1
    30   18   19 2
    31   18   20 1
    32   20   21 1
    33   20   36 1
    34   20   37 1
    35   21   25 1
    36   21   22 2
    37   22   23 1
    38   22   38 1
    39   23   24 2
    40   23   39 1
    41   24   25 1
    42   24   26 1
@<TRIPOS>MOLECULE
ZINC19733315
   48    50     0     0     0
SMALL
USER_CHARGES
(4S,4aR)-2-amino-4-(5-butyl-2-thienyl)-4a,5,6,7-tetrahydro-4H-naphthalene-1,3,3-tricarbonitrile
@<TRIPOS>ATOM
      1 C1         -0.0127    1.0858    0.0080 C.3       1 <0>        -0.1555
      2 C2         -0.7288    1.5792    1.2668 C.3       1 <0>        -0.1257
      3 C3         -2.1642    1.0497    1.2777 C.3       1 <0>        -0.1151
      4 C4         -2.8804    1.5431    2.5365 C.3       1 <0>        -0.0410
      5 C5         -4.2942    1.0215    2.5472 C.2       1 <0>        -0.1444
      6 C6         -4.7745   -0.1321    3.0725 C.2       1 <0>        -0.1688
      7 C7         -6.1248   -0.4069    2.9642 C.2       1 <0>        -0.1233
      8 C8         -6.9288    0.4854    2.3359 C.2       1 <0>        -0.1766
      9 S1         -5.7724    1.7662    1.8782 S.3       1 <0>         0.0996
     10 C9         -8.4144    0.4167    2.0920 C.3       1 <0>         0.0286
     11 H1         -8.7939   -0.5223    2.5212 H         1 <0>         0.1279
     12 C10        -9.0982    1.6138    2.7551 C.3       1 <0>        -0.0402
     13 H2        -10.1696    1.6531    2.5089 H         1 <0>         0.0948
     14 C11        -9.0840    1.5076    4.2621 C.3       1 <0>        -0.1116
     15 C12        -7.9629    2.3399    4.8811 C.3       1 <0>        -0.1244
     16 C13        -8.1635    3.8045    4.4681 C.3       1 <0>        -0.0903
     17 C14        -8.0783    3.8743    2.9654 C.2       1 <0>        -0.1250
     18 C15        -8.4811    2.8689    2.2134 C.2       1 <0>        -0.0609
     19 C16        -8.2770    2.9374    0.7423 C.2       1 <0>        -0.1413
     20 C17        -8.3671    1.8020    0.0051 C.2       1 <0>         0.2531
     21 C18        -8.6887    0.4563    0.5883 C.3       1 <0>         0.2083
     22 C19        -7.8672   -0.5681   -0.0769 C.1       1 <0>         0.1958
     23 N1         -7.2333   -1.3587   -0.5903 N.1       1 <0>        -0.3498
     24 C20       -10.1105    0.1577    0.3514 C.1       1 <0>         0.1992
     25 N2        -11.2077   -0.0728    0.1686 N.1       1 <0>        -0.3510
     26 N3         -8.1535    1.8872   -1.3420 N.pl3     1 <0>        -0.8609
     27 C21        -7.9887    4.1893    0.1097 C.1       1 <0>         0.2687
     28 N4         -7.7600    5.1825   -0.3921 N.1       1 <0>        -0.4306
     29 H3          1.0193    1.4665    0.0002 H         1 <0>         0.0557
     30 H4         -0.5447    1.4502   -0.8831 H         1 <0>         0.0540
     31 H5          0.0022   -0.0141    0.0019 H         1 <0>         0.0544
     32 H6         -0.1968    1.2148    2.1579 H         1 <0>         0.0638
     33 H7         -0.7437    2.6791    1.2729 H         1 <0>         0.0634
     34 H8         -2.6962    1.4141    0.3865 H         1 <0>         0.0640
     35 H9         -2.1494   -0.0502    1.2716 H         1 <0>         0.0661
     36 H10        -2.3484    1.1787    3.4277 H         1 <0>         0.0860
     37 H11        -2.8953    2.6430    2.5426 H         1 <0>         0.0793
     38 H12        -4.1120   -0.8260    3.5685 H         1 <0>         0.1287
     39 H13        -6.5332   -1.3187    3.3743 H         1 <0>         0.1311
     40 H14       -10.0425    1.8677    4.6641 H         1 <0>         0.0742
     41 H15        -8.9351    0.4576    4.5543 H         1 <0>         0.0742
     42 H16        -8.0008    2.2489    5.9767 H         1 <0>         0.0677
     43 H17        -6.9913    1.9754    4.5163 H         1 <0>         0.0718
     44 H18        -9.1497    4.1504    4.8112 H         1 <0>         0.0784
     45 H19        -7.3782    4.4250    4.9244 H         1 <0>         0.0746
     46 H20        -7.6720    4.7830    2.4972 H         1 <0>         0.1115
     47 H21        -8.2193    0.9847   -1.9675 H         1 <0>         0.4253
     48 H22        -7.9158    2.8583   -1.8008 H         1 <0>         0.4363
@<TRIPOS>BOND
     1    1    2 1
     2    1   29 1
     3    1   30 1
     4    1   31 1
     5    2    3 1
     6    2   32 1
     7    2   33 1
     8    3    4 1
     9    3   34 1
    10    3   35 1
    11    4    5 1
    12    4   36 1
    13    4   37 1
    14    5    9 1
    15    5    6 2
    16    6    7 1
    17    6   38 1
    18    7    8 2
    19    7   39 1
    20    8    9 1
    21    8   10 1
    22   10   11 1
    23   10   21 1
    24   10   12 1
    25   12   13 1
    26   12   18 1
    27   12   14 1
    28   14   15 1
    29   14   40 1
    30   14   41 1
    31   15   16 1
    32   15   42 1
    33   15   43 1
    34   16   17 1
    35   16   44 1
    36   16   45 1
    37   17   18 2
    38   17   46 1
    39   18   19 1
    40   19   20 2
    41   19   27 1
    42   20   21 1
    43   20   26 1
    44   21   22 1
    45   21   24 1
    46   22   23 3
    47   24   25 3
    48   26   47 1
    49   26   48 1
    50   27   28 3
@<TRIPOS>MOLECULE
ZINC37335059
   29    31     0     0     0
SMALL
USER_CHARGES

@<TRIPOS>ATOM
      1 C1          0.0518    2.5798    1.2200 C.ar      1 <0>        -0.1152
      2 C2          1.2976    3.1147    0.9599 C.ar      1 <0>        -0.0606
      3 C3          2.4108    2.2802    0.8899 C.ar      1 <0>        -0.0351
      4 C4          2.2604    0.9087    1.0829 C.ar      1 <0>        -0.0364
      5 C5          1.0098    0.3837    1.3425 C.ar      1 <0>        -0.0991
      6 C6         -0.0927    1.2179    1.4110 C.ar      1 <0>        -0.0620
      7 Br1         0.8031   -1.4777    1.6042 Br        1 <0>        -0.0333
      8 C7          3.7526    2.8503    0.6100 C.2       1 <0>         0.3013
      9 N1          4.8934    2.1503    0.5135 N.2       1 <0>        -0.5185
     10 C8          5.8955    2.9608    0.2585 C.2       1 <0>         0.3518
     11 O1          5.4139    4.2144    0.1849 O.3       1 <0>        -0.0971
     12 N2          4.0157    4.1191    0.4112 N.2       1 <0>        -0.3274
     13 C9          7.3060    2.5643    0.0837 C.ar      1 <0>        -0.1123
     14 C10         7.9059    1.6857    0.9888 C.ar      1 <0>         0.0066
     15 C11         9.2246    1.3186    0.8204 C.ar      1 <0>        -0.0891
     16 C12         9.9595    1.8175   -0.2441 C.ar      1 <0>        -0.0148
     17 C13         9.3792    2.6870   -1.1468 C.ar      1 <0>        -0.1116
     18 C14         8.0500    3.0628   -0.9953 C.ar      1 <0>         0.2840
     19 N3          7.4613    3.9346   -1.9074 N.pl3     1 <0>        -0.8481
     20 Cl1        10.3092    3.3053   -2.4760 Cl        1 <0>        -0.0417
     21 Cl2         9.9681    0.2270    1.9471 Cl        1 <0>        -0.0461
     22 H1         -0.8109    3.2268    1.2789 H         1 <0>         0.1447
     23 H2          1.4090    4.1785    0.8107 H         1 <0>         0.1403
     24 H3          3.1202    0.2573    1.0293 H         1 <0>         0.1503
     25 H4         -1.0691    0.8037    1.6146 H         1 <0>         0.1423
     26 H5          7.3378    1.2946    1.8199 H         1 <0>         0.1528
     27 H6         10.9917    1.5249   -0.3680 H         1 <0>         0.1549
     28 H7          6.5117    4.1250   -1.8529 H         1 <0>         0.4069
     29 H8          8.0007    4.3517   -2.5973 H         1 <0>         0.4125
@<TRIPOS>BOND
     1    1    6 ar
     2    1    2 ar
     3    1   22 1
     4    2    3 ar
     5    2   23 1
     6    3    4 ar
     7    3    8 1
     8    4    5 ar
     9    4   24 1
    10    5    6 ar
    11    5    7 1
    12    6   25 1
    13    8   12 2
    14    8    9 1
    15    9   10 2
    16   10   11 1
    17   10   13 1
    18   11   12 1
    19   13   18 ar
    20   13   14 ar
    21   14   15 ar
    22   14   26 1
    23   15   16 ar
    24   15   21 1
    25   16   17 ar
    26   16   27 1
    27   17   18 ar
    28   17   20 1
    29   18   19 1
    30   19   28 1
    31   19   29 1
@<TRIPOS>MOLECULE
ZINC05773961
   32    34     0     0     0
SMALL
USER_CHARGES

@<TRIPOS>ATOM
      1 C1         -0.0167    1.3794    0.0096 C.ar      1 <0>        -0.0994
      2 C2          1.1685    2.0934    0.0021 C.ar      1 <0>        -0.1279
      3 C3          2.3774    1.4290   -0.0129 C.ar      1 <0>        -0.0728
      4 C4          2.4033    0.0337   -0.0206 C.ar      1 <0>        -0.0410
      5 C5          1.2043   -0.6805   -0.0130 C.ar      1 <0>        -0.0735
      6 C6          0.0021   -0.0041    0.0020 C.ar      1 <0>        -0.1260
      7 C7          3.6965   -0.6855   -0.0373 C.2       1 <0>         0.2685
      8 C8          3.8803   -1.9045    0.6313 C.2       1 <0>        -0.1033
      9 S1          5.5895   -2.2402    0.2391 S.3       1 <0>         0.1044
     10 C9          5.8952   -0.8712   -0.6896 C.2       1 <0>         0.3500
     11 N1          4.7483   -0.2229   -0.6869 N.2       1 <0>        -0.5826
     12 N2          7.0720   -0.5133   -1.3135 N.pl3     1 <0>        -0.7808
     13 N3          3.0113   -2.6209    1.3641 N.2       1 <0>        -0.1172
     14 N4          3.3841   -3.7323    1.9023 N.2       1 <0>        -0.2599
     15 C10         2.5009   -4.4605    2.6471 C.ar      1 <0>         0.0802
     16 C11         1.1901   -4.0071    2.8237 C.ar      1 <0>        -0.1089
     17 C12         0.3038   -4.7474    3.5770 C.ar      1 <0>        -0.0884
     18 C13         0.7094   -5.9372    4.1584 C.ar      1 <0>        -0.0785
     19 C14         2.0064   -6.3921    3.9881 C.ar      1 <0>        -0.0892
     20 C15         2.9015   -5.6656    3.2319 C.ar      1 <0>        -0.0639
     21 Br1        -0.5134   -6.9450    5.1903 Br        1 <0>        -0.0432
     22 H1         -0.9605    1.9042    0.0260 H         1 <0>         0.1260
     23 H2          1.1471    3.1732    0.0078 H         1 <0>         0.1276
     24 H3          3.3018    1.9874   -0.0191 H         1 <0>         0.1289
     25 H4          1.2177   -1.7604   -0.0193 H         1 <0>         0.1292
     26 H5         -0.9265   -0.5556    0.0082 H         1 <0>         0.1285
     27 H6          7.8524   -1.0848   -1.2417 H         1 <0>         0.4261
     28 H7          7.1192    0.3101   -1.8242 H         1 <0>         0.4199
     29 H8          0.8727   -3.0792    2.3715 H         1 <0>         0.1433
     30 H9         -0.7090   -4.3984    3.7143 H         1 <0>         0.1377
     31 H10         2.3160   -7.3204    4.4450 H         1 <0>         0.1425
     32 H11         3.9112   -6.0240    3.0959 H         1 <0>         0.1438
@<TRIPOS>BOND
     1    1    6 ar
     2    1    2 ar
     3    1   22 1
     4    2    3 ar
     5    2   23 1
     6    3    4 ar
     7    3   24 1
     8    4    5 ar
     9    4    7 1
    10    5    6 ar
    11    5   25 1
    12    6   26 1
    13    7   11 1
    14    7    8 2
    15    8    9 1
    16    8   13 1
    17    9   10 1
    18   10   11 2
    19   10   12 1
    20   12   27 1
    21   12   28 1
    22   13   14 2
    23   14   15 1
    24   15   20 ar
    25   15   16 ar
    26   16   17 ar
    27   16   29 1
    28   17   18 ar
    29   17   30 1
    30   18   19 ar
    31   18   21 1
    32   19   20 ar
    33   19   31 1
    34   20   32 1
@<TRIPOS>MOLECULE
ZINC05867596
   34    35     0     0     0
SMALL
USER_CHARGES
2-(3-bromophenoxy)-N-(3-cyanophenyl)-propanamide
@<TRIPOS>ATOM
      1 C1          0.3188    8.2086   -0.8073 C.3       1 <0>        -0.1810
      2 C2          1.0922    7.4257    0.2556 C.3       1 <0>         0.0690
      3 H1          0.6060    7.5491    1.2234 H         1 <0>         0.1075
      4 C3          1.1135    5.9646   -0.1131 C.2       1 <0>         0.5180
      5 O1          2.1716    5.4004   -0.2949 O.2       1 <0>        -0.4868
      6 N1         -0.0433    5.2849   -0.2407 N.am      1 <0>        -0.6689
      7 C4         -0.0221    3.9060   -0.4790 C.ar      1 <0>         0.1457
      8 C5         -1.0113    3.3205   -1.2604 C.ar      1 <0>        -0.1131
      9 C6         -0.9952    1.9591   -1.4989 C.ar      1 <0>        -0.0971
     10 C7          0.0032    1.1716   -0.9626 C.ar      1 <0>        -0.0828
     11 C8          0.9985    1.7490   -0.1715 C.ar      1 <0>        -0.0047
     12 C9          0.9851    3.1244    0.0644 C.ar      1 <0>        -0.0759
     13 C10         2.0324    0.9336    0.3913 C.1       1 <0>         0.2506
     14 N2          2.8526    0.2867    0.8378 N.1       1 <0>        -0.4058
     15 O2          2.4317    7.9179    0.3292 O.3       1 <0>        -0.2807
     16 C11         2.6484    9.0007    1.1215 C.ar      1 <0>         0.1354
     17 C12         1.5778    9.6482    1.7214 C.ar      1 <0>        -0.1980
     18 C13         1.8001   10.7485    2.5262 C.ar      1 <0>        -0.0713
     19 C14         3.0885   11.2051    2.7350 C.ar      1 <0>        -0.1263
     20 C15         4.1579   10.5613    2.1387 C.ar      1 <0>        -0.0512
     21 C16         3.9405    9.4566    1.3362 C.ar      1 <0>        -0.1198
     22 Br1         5.9184   11.1885    2.4265 Br        1 <0>        -0.0356
     23 H2         -0.7030    7.8331   -0.8634 H         1 <0>         0.0815
     24 H3          0.3033    9.2654   -0.5406 H         1 <0>         0.0820
     25 H4          0.8049    8.0852   -1.7750 H         1 <0>         0.0801
     26 H5         -0.8906    5.7514   -0.1675 H         1 <0>         0.4157
     27 H6         -1.7957    3.9314   -1.6823 H         1 <0>         0.1364
     28 H7         -1.7666    1.5101   -2.1068 H         1 <0>         0.1414
     29 H8          0.0122    0.1082   -1.1510 H         1 <0>         0.1371
     30 H9          1.7542    3.5774    0.6723 H         1 <0>         0.1441
     31 H10         0.5712    9.2923    1.5588 H         1 <0>         0.1365
     32 H11         0.9669   11.2526    2.9932 H         1 <0>         0.1377
     33 H12         3.2602   12.0654    3.3649 H         1 <0>         0.1369
     34 H13         4.7758    8.9516    0.8739 H         1 <0>         0.1437
@<TRIPOS>BOND
     1    1    2 1
     2    1   23 1
     3    1   24 1
     4    1   25 1
     5    2    3 1
     6    2    4 1
     7    2   15 1
     8    4    5 2
     9    4    6 am
    10    6    7 1
    11    6   26 1
    12    7   12 ar
    13    7    8 ar
    14    8    9 ar
    15    8   27 1
    16    9   10 ar
    17    9   28 1
    18   10   11 ar
    19   10   29 1
    20   11   12 ar
    21   11   13 1
    22   12   30 1
    23   13   14 3
    24   15   16 1
    25   16   21 ar
    26   16   17 ar
    27   17   18 ar
    28   17   31 1
    29   18   19 ar
    30   18   32 1
    31   19   20 ar
    32   19   33 1
    33   20   21 ar
    34   20   22 1
    35   21   34 1
@<TRIPOS>MOLECULE
ZINC23039333
   48    50     0     0     0
SMALL
USER_CHARGES
N-[2-[(2,6-dimethylphenyl)amino]-2-oxo-ethyl]-N-methyl-naphthalene-1-carboxamide
@<TRIPOS>ATOM
      1 C1         -4.2416   11.4717   -3.5528 C.3       1 <0>        -0.1112
      2 C2         -3.9120   10.2761   -4.4090 C.ar      1 <0>        -0.0961
      3 C3         -3.8954   10.3946   -5.7849 C.ar      1 <0>        -0.1155
      4 C4         -3.5982    9.2967   -6.5713 C.ar      1 <0>        -0.1181
      5 C5         -3.3121    8.0783   -5.9832 C.ar      1 <0>        -0.1148
      6 C6         -3.3218    7.9546   -4.6077 C.ar      1 <0>        -0.0706
      7 C7         -3.6194    9.0554   -3.8151 C.ar      1 <0>         0.1422
      8 N1         -3.6301    8.9334   -2.4212 N.am      1 <0>        -0.6879
      9 C8         -4.3511    7.9567   -1.8357 C.2       1 <0>         0.4980
     10 O1         -5.0587    7.2383   -2.5096 O.2       1 <0>        -0.5085
     11 C9         -4.2781    7.7574   -0.3437 C.3       1 <0>         0.0947
     12 N2         -5.1463    6.6426    0.0431 N.am      1 <0>        -0.5922
     13 C10        -6.5472    6.8919    0.3916 C.3       1 <0>         0.0538
     14 C11        -4.6562    5.3876    0.0783 C.2       1 <0>         0.5725
     15 O2         -3.4725    5.1914   -0.1190 O.2       1 <0>        -0.5254
     16 C12        -5.5555    4.2524    0.3561 C.ar      1 <0>        -0.1144
     17 C13        -6.4164    4.2892    1.4432 C.ar      1 <0>        -0.0837
     18 C14        -7.2661    3.2232    1.7099 C.ar      1 <0>        -0.1270
     19 C15        -7.2860    2.1196    0.9105 C.ar      1 <0>        -0.0790
     20 C16        -6.4378    2.0432   -0.2077 C.ar      1 <0>        -0.0557
     21 C17        -5.5610    3.1178   -0.4934 C.ar      1 <0>        -0.0133
     22 C18        -4.7203    3.0430   -1.6122 C.ar      1 <0>        -0.0989
     23 C19        -4.7522    1.9370   -2.4075 C.ar      1 <0>        -0.1099
     24 C20        -5.6102    0.8766   -2.1253 C.ar      1 <0>        -0.1114
     25 C21        -6.4406    0.9157   -1.0472 C.ar      1 <0>        -0.1073
     26 C22        -3.0093    6.6266   -3.9675 C.3       1 <0>        -0.1096
     27 H1         -4.4431   12.3399   -4.1974 H         1 <0>         0.0684
     28 H2         -3.3911   11.6951   -2.8920 H         1 <0>         0.0676
     29 H3         -5.1312   11.2527   -2.9441 H         1 <0>         0.0675
     30 H4         -4.1189   11.3447   -6.2473 H         1 <0>         0.1249
     31 H5         -3.5900    9.3908   -7.6472 H         1 <0>         0.1239
     32 H6         -3.0803    7.2227   -6.6001 H         1 <0>         0.1239
     33 H7         -3.0501    9.6346   -1.8033 H         1 <0>         0.4302
     34 H8         -3.2411    7.5321   -0.0542 H         1 <0>         0.1214
     35 H9         -4.6099    8.6743    0.1654 H         1 <0>         0.1141
     36 H10        -7.0349    5.9411    0.6526 H         1 <0>         0.0985
     37 H11        -7.0636    7.3453   -0.4673 H         1 <0>         0.0670
     38 H12        -6.5949    7.5765    1.2512 H         1 <0>         0.0688
     39 H13        -6.4204    5.1518    2.0931 H         1 <0>         0.1340
     40 H14        -7.9225    3.2697    2.5663 H         1 <0>         0.1323
     41 H15        -7.9550    1.3025    1.1364 H         1 <0>         0.1329
     42 H16        -4.0507    3.8582   -1.8432 H         1 <0>         0.1330
     43 H17        -4.1033    1.8820   -3.2691 H         1 <0>         0.1252
     44 H18        -5.6170    0.0111   -2.7713 H         1 <0>         0.1262
     45 H19        -7.1013    0.0867   -0.8406 H         1 <0>         0.1308
     46 H20        -3.0660    6.7246   -2.8733 H         1 <0>         0.0655
     47 H21        -1.9958    6.3103   -4.2553 H         1 <0>         0.0622
     48 H22        -3.7380    5.8756   -4.3066 H         1 <0>         0.0712
@<TRIPOS>BOND
     1    1    2 1
     2    1   27 1
     3    1   28 1
     4    1   29 1
     5    2    7 ar
     6    2    3 ar
     7    3    4 ar
     8    3   30 1
     9    4    5 ar
    10    4   31 1
    11    5    6 ar
    12    5   32 1
    13    6    7 ar
    14    6   26 1
    15    7    8 1
    16    8    9 am
    17    8   33 1
    18    9   10 2
    19    9   11 1
    20   11   12 1
    21   11   34 1
    22   11   35 1
    23   12   13 1
    24   12   14 am
    25   13   36 1
    26   13   37 1
    27   13   38 1
    28   14   15 2
    29   14   16 1
    30   16   21 ar
    31   16   17 ar
    32   17   18 ar
    33   17   39 1
    34   18   19 ar
    35   18   40 1
    36   19   20 ar
    37   19   41 1
    38   20   25 ar
    39   20   21 ar
    40   21   22 ar
    41   22   23 ar
    42   22   42 1
    43   23   24 ar
    44   23   43 1
    45   24   25 ar
    46   24   44 1
    47   25   45 1
    48   26   46 1
    49   26   47 1
    50   26   48 1
@<TRIPOS>MOLECULE
ZINC37543794
   33    35     0     0     0
SMALL
USER_CHARGES

@<TRIPOS>ATOM
      1 C1         -0.0162    1.4976   -0.0253 C.3       1 <0>        -0.1622
      2 C2         -0.0046   -0.0322   -0.0046 C.3       1 <0>         0.0843
      3 N1          0.7086   -0.4991    1.1869 N.pl3     1 <0>        -0.3893
      4 C3          2.0483   -0.8217    1.2407 C.2       1 <0>         0.0140
      5 C4          2.3491   -1.2167    2.5258 C.2       1 <0>        -0.0915
      6 C5          1.1812   -1.1353    3.2675 C.2       1 <0>        -0.1828
      7 C6          0.1421   -0.6818    2.4465 C.2       1 <0>         0.0516
      8 C7         -1.1084   -0.5423    3.0645 C.2       1 <0>        -0.1035
      9 C8         -1.2523   -0.8361    4.3746 C.2       1 <0>        -0.1194
     10 S1          0.3913   -1.3516    4.8420 S.3       1 <0>         0.1262
     11 Br1        -2.5953    0.0585    2.0625 Br        1 <0>        -0.0361
     12 C9          2.9909   -0.7560    0.1218 C.2       1 <0>         0.5927
     13 O1          2.6361   -0.2928   -0.9466 O.2       1 <0>        -0.5313
     14 N2          4.2512   -1.2084    0.2750 N.am      1 <0>        -0.7146
     15 C10         5.2261   -1.0406   -0.8056 C.3       1 <0>         0.2078
     16 C11         6.5487   -1.6277   -0.3846 C.2       1 <0>        -0.0466
     17 C12         6.9456   -2.8970   -0.5860 C.2       1 <0>        -0.1767
     18 C13         8.2426   -3.0129   -0.0352 C.2       1 <0>        -0.2185
     19 C14         8.5606   -1.8074    0.4698 C.2       1 <0>        -0.0233
     20 O2          7.5332   -0.9708    0.2502 O.3       1 <0>        -0.1707
     21 H1          1.0085    1.8685   -0.0466 H         1 <0>         0.0647
     22 H2         -0.5468    1.8450   -0.9118 H         1 <0>         0.0787
     23 H3         -0.5187    1.8692    0.8678 H         1 <0>         0.0613
     24 H4         -1.0293   -0.4031    0.0166 H         1 <0>         0.0935
     25 H5          0.4978   -0.4038   -0.8977 H         1 <0>         0.1140
     26 H6          3.3163   -1.5322    2.8882 H         1 <0>         0.1582
     27 H7         -2.1411   -0.7790    4.9855 H         1 <0>         0.2049
     28 H8          4.5128   -1.6451    1.1007 H         1 <0>         0.4084
     29 H9          4.8695   -1.5523   -1.6995 H         1 <0>         0.1050
     30 H10         5.3516    0.0207   -1.0202 H         1 <0>         0.0901
     31 H11         6.3816   -3.6780   -1.0742 H         1 <0>         0.1522
     32 H12         8.8595   -3.8992   -0.0221 H         1 <0>         0.1524
     33 H13         9.4867   -1.5541    0.9644 H         1 <0>         0.2068
@<TRIPOS>BOND
     1    1    2 1
     2    1   21 1
     3    1   22 1
     4    1   23 1
     5    2    3 1
     6    2   24 1
     7    2   25 1
     8    3    7 1
     9    3    4 1
    10    4    5 2
    11    4   12 1
    12    5    6 1
    13    5   26 1
    14    6   10 1
    15    6    7 2
    16    7    8 1
    17    8    9 2
    18    8   11 1
    19    9   10 1
    20    9   27 1
    21   12   13 2
    22   12   14 am
    23   14   15 1
    24   14   28 1
    25   15   16 1
    26   15   29 1
    27   15   30 1
    28   16   20 1
    29   16   17 2
    30   17   18 1
    31   17   31 1
    32   18   19 2
    33   18   32 1
    34   19   20 1
    35   19   33 1
@<TRIPOS>MOLECULE
ZINC44731852
   36    37     0     0     0
SMALL
USER_CHARGES

@<TRIPOS>ATOM
      1 C1         -0.0184    1.5028    0.0103 C.3       1 <0>        -0.0762
      2 C2          0.0021   -0.0041    0.0020 C.2       1 <0>        -0.0094
      3 C3         -1.0783   -0.8055    0.0027 C.2       1 <0>        -0.2012
      4 C4         -0.6011   -2.1363   -0.0068 C.2       1 <0>        -0.1821
      5 C5          0.7423   -2.0686   -0.0126 C.2       1 <0>         0.0002
      6 O1          1.1020   -0.7746   -0.0131 O.3       1 <0>        -0.1704
      7 C6          1.6840   -3.2450   -0.0226 C.3       1 <0>        -0.0811
      8 C7         -1.4371   -3.3901   -0.0093 C.3       1 <0>         0.2214
      9 H1         -0.9410   -4.1564   -0.6049 H         1 <0>         0.0991
     10 C8         -1.6088   -3.8915    1.4260 C.3       1 <0>        -0.1721
     11 N1         -2.7522   -3.0990   -0.5855 N.pl3     1 <0>        -1.1064
     12 S1         -3.5281   -4.2428   -1.4977 S.o2      1 <0>         2.6939
     13 O2         -4.7732   -3.6778   -1.8845 O.2       1 <0>        -0.9516
     14 O3         -2.5808   -4.7188   -2.4439 O.2       1 <0>        -0.9487
     15 C9         -3.8986   -5.5959   -0.4317 C.ar      1 <0>        -0.6664
     16 C10        -2.9875   -6.6242   -0.2781 C.ar      1 <0>        -0.0150
     17 C11        -3.2775   -7.6856    0.5584 C.ar      1 <0>        -0.1113
     18 C12        -4.4796   -7.7189    1.2419 C.ar      1 <0>        -0.0382
     19 C13        -5.3909   -6.6897    1.0880 C.ar      1 <0>        -0.1113
     20 C14        -5.0978   -5.6261    0.2553 C.ar      1 <0>        -0.0101
     21 Br1        -4.8772   -9.1711    2.3860 Br        1 <0>        -0.0312
     22 H2          1.0042    1.8801    0.0026 H         1 <0>         0.0763
     23 H3         -0.5455    1.8639   -0.8728 H         1 <0>         0.0865
     24 H4         -0.5286    1.8543    0.9071 H         1 <0>         0.0862
     25 H5         -2.1119   -0.4924    0.0097 H         1 <0>         0.1471
     26 H6          1.9064   -3.5237   -1.0527 H         1 <0>         0.0860
     27 H7          2.6082   -2.9750    0.4883 H         1 <0>         0.0798
     28 H8          1.2186   -4.0873    0.4893 H         1 <0>         0.0890
     29 H9         -0.6304   -4.1080    1.8547 H         1 <0>         0.0729
     30 H10        -2.1050   -3.1252    2.0216 H         1 <0>         0.0685
     31 H11        -2.2135   -4.7984    1.4242 H         1 <0>         0.0636
     32 H12        -3.1685   -2.2363   -0.4327 H         1 <0>         0.4207
     33 H13        -2.0491   -6.5984   -0.8121 H         1 <0>         0.1502
     34 H14        -2.5658   -8.4891    0.6780 H         1 <0>         0.1453
     35 H15        -6.3296   -6.7152    1.6215 H         1 <0>         0.1450
     36 H16        -5.8076   -4.8205    0.1383 H         1 <0>         0.1507
@<TRIPOS>BOND
     1    1    2 1
     2    1   22 1
     3    1   23 1
     4    1   24 1
     5    2    6 1
     6    2    3 2
     7    3    4 1
     8    3   25 1
     9    4    5 2
    10    4    8 1
    11    5    6 1
    12    5    7 1
    13    7   26 1
    14    7   27 1
    15    7   28 1
    16    8    9 1
    17    8   10 1
    18    8   11 1
    19   10   29 1
    20   10   30 1
    21   10   31 1
    22   11   12 1
    23   11   32 1
    24   12   13 2
    25   12   14 2
    26   12   15 1
    27   15   20 ar
    28   15   16 ar
    29   16   17 ar
    30   16   33 1
    31   17   18 ar
    32   17   34 1
    33   18   19 ar
    34   18   21 1
    35   19   20 ar
    36   19   35 1
    37   20   36 1
@<TRIPOS>MOLECULE
ZINC58680378
   42    44     0     0     0
SMALL
USER_CHARGES

@<TRIPOS>ATOM
      1 C1          0.2726    1.6756   -0.2821 C.3       1 <0>        -0.0760
      2 C2          0.2185    0.1750   -0.1536 C.2       1 <0>        -0.1830
      3 C3         -0.8779   -0.6099   -0.0110 C.2       1 <0>        -0.1933
      4 C4         -0.7165   -1.9709    0.0903 C.2       1 <0>        -0.0586
      5 C5          0.5914   -2.4280    0.0357 C.2       1 <0>        -0.2635
      6 S1          1.5024   -0.9084   -0.1615 S.3       1 <0>         0.1989
      7 C6          1.0937   -3.8029    0.1141 C.2       1 <0>         0.6104
      8 O1          0.3148   -4.7287    0.2459 O.2       1 <0>        -0.5246
      9 N1          2.4180   -4.0418    0.0402 N.am      1 <0>        -0.7192
     10 C7          2.9200   -5.4158    0.1185 C.3       1 <0>         0.2281
     11 H1          2.2973   -5.9917    0.8032 H         1 <0>         0.0977
     12 C8          2.8759   -6.0549   -1.2709 C.3       1 <0>        -0.1594
     13 C9          4.3407   -5.4038    0.6211 C.2       1 <0>        -0.2418
     14 C10         5.2111   -4.3086    0.6021 C.2       1 <0>         0.0646
     15 N2          6.3524   -4.6833    1.1218 N.2       1 <0>        -0.2789
     16 N3          6.2451   -6.0309    1.4889 N.pl3     1 <0>        -0.3231
     17 C11         4.9979   -6.4487    1.1758 C.2       1 <0>         0.1075
     18 C12         4.4406   -7.8306    1.4011 C.3       1 <0>        -0.1031
     19 C13         7.2514   -6.8078    2.0811 C.ar      1 <0>         0.1383
     20 C14         7.4598   -8.1139    1.6594 C.ar      1 <0>        -0.0947
     21 C15         8.4516   -8.8772    2.2433 C.ar      1 <0>        -0.1334
     22 C16         9.2380   -8.3405    3.2489 C.ar      1 <0>         0.1042
     23 C17         9.0313   -7.0379    3.6712 C.ar      1 <0>        -0.1350
     24 C18         8.0443   -6.2697    3.0856 C.ar      1 <0>        -0.0763
     25 F1         10.2077   -9.0887    3.8190 F         1 <0>        -0.1320
     26 H2          1.3097    1.9941   -0.3871 H         1 <0>         0.0748
     27 H3         -0.2934    1.9856   -1.1606 H         1 <0>         0.0844
     28 H4         -0.1595    2.1323    0.6083 H         1 <0>         0.0844
     29 H5         -1.8644   -0.1715    0.0228 H         1 <0>         0.1384
     30 H6         -1.5550   -2.6417    0.2055 H         1 <0>         0.1496
     31 H7          3.0388   -3.3039   -0.0649 H         1 <0>         0.3974
     32 H8          3.4986   -5.4791   -1.9556 H         1 <0>         0.0598
     33 H9          3.2494   -7.0773   -1.2126 H         1 <0>         0.0677
     34 H10         1.8484   -6.0637   -1.6344 H         1 <0>         0.0660
     35 H11         4.9811   -3.3237    0.2232 H         1 <0>         0.1848
     36 H12         4.7105   -8.4724    0.5624 H         1 <0>         0.0866
     37 H13         4.8533   -8.2432    2.3217 H         1 <0>         0.0781
     38 H14         3.3550   -7.7759    1.4821 H         1 <0>         0.0927
     39 H15         6.8465   -8.5330    0.8754 H         1 <0>         0.1421
     40 H16         8.6137   -9.8935    1.9158 H         1 <0>         0.1483
     41 H17         9.6451   -6.6212    4.4560 H         1 <0>         0.1475
     42 H18         7.8866   -5.2522    3.4118 H         1 <0>         0.1436
@<TRIPOS>BOND
     1    1    2 1
     2    1   26 1
     3    1   27 1
     4    1   28 1
     5    2    6 1
     6    2    3 2
     7    3    4 1
     8    3   29 1
     9    4    5 2
    10    4   30 1
    11    5    6 1
    12    5    7 1
    13    7    8 2
    14    7    9 am
    15    9   10 1
    16    9   31 1
    17   10   11 1
    18   10   12 1
    19   10   13 1
    20   12   32 1
    21   12   33 1
    22   12   34 1
    23   13   17 2
    24   13   14 1
    25   14   15 2
    26   14   35 1
    27   15   16 1
    28   16   17 1
    29   16   19 1
    30   17   18 1
    31   18   36 1
    32   18   37 1
    33   18   38 1
    34   19   24 ar
    35   19   20 ar
    36   20   21 ar
    37   20   39 1
    38   21   22 ar
    39   21   40 1
    40   22   23 ar
    41   22   25 1
    42   23   24 ar
    43   23   41 1
    44   24   42 1
@<TRIPOS>MOLECULE
ZINC00964245
   56    58     0     0     0
SMALL
USER_CHARGES
2-cyclohexyl-N-isopropyl-3-(4-methylbenzoyl)-thiazolidine-4-carboxamide
@<TRIPOS>ATOM
      1 C1          5.7893    1.7287    8.5302 C.3       1 <0>        -0.1218
      2 C2          5.5471    1.6282    7.0462 C.ar      1 <0>        -0.0529
      3 C3          6.6121    1.4245    6.1867 C.ar      1 <0>        -0.1344
      4 C4          6.3972    1.3316    4.8272 C.ar      1 <0>        -0.0484
      5 C5          5.1020    1.4432    4.3192 C.ar      1 <0>        -0.1462
      6 C6          4.0327    1.6535    5.1913 C.ar      1 <0>        -0.1263
      7 C7          4.2607    1.7397    6.5492 C.ar      1 <0>        -0.1355
      8 C8          4.8644    1.3452    2.8633 C.2       1 <0>         0.5712
      9 O1          5.8055    1.3165    2.0945 O.2       1 <0>        -0.4904
     10 N1          3.6044    1.2877    2.3884 N.am      1 <0>        -0.6029
     11 C9          3.3211    1.0853    0.9704 C.3       1 <0>         0.1165
     12 H1          3.2219    0.0179    0.7732 H         1 <0>         0.1042
     13 C10         2.0034    1.8068    0.5606 C.3       1 <0>        -0.0680
     14 S1          1.0185    1.4574    2.0863 S.3       1 <0>        -0.2460
     15 C11         2.4301    1.4260    3.2707 C.3       1 <0>         0.1814
     16 H2          2.4800    2.3572    3.8351 H         1 <0>         0.1238
     17 C12         2.3180    0.2262    4.2135 C.3       1 <0>        -0.1139
     18 C13         2.0188   -1.0350    3.4005 C.3       1 <0>        -0.1141
     19 C14         1.9067   -2.2348    4.3433 C.3       1 <0>        -0.1181
     20 C15         0.7752   -1.9929    5.3443 C.3       1 <0>        -0.1203
     21 C16         1.0744   -0.7318    6.1572 C.3       1 <0>        -0.1154
     22 C17         1.1865    0.4680    5.2145 C.3       1 <0>        -0.1173
     23 C18         4.4620    1.6346    0.1533 C.2       1 <0>         0.5213
     24 O2          5.1119    2.5695    0.5709 O.2       1 <0>        -0.4948
     25 N2          4.7602    1.0868   -1.0414 N.am      1 <0>        -0.7267
     26 C19         5.9397    1.5416   -1.7819 C.3       1 <0>         0.1435
     27 C20         7.1883    0.8567   -1.2226 C.3       1 <0>        -0.1645
     28 C21         5.7819    1.1850   -3.2613 C.3       1 <0>        -0.1608
     29 H3          5.9704    2.7693    8.7991 H         1 <0>         0.0759
     30 H4          4.9144    1.3617    9.0668 H         1 <0>         0.0702
     31 H5          6.6583    1.1276    8.7980 H         1 <0>         0.0699
     32 H6          7.6138    1.3383    6.5811 H         1 <0>         0.1293
     33 H7          7.2295    1.1733    4.1573 H         1 <0>         0.1340
     34 H8          3.0286    1.7451    4.8042 H         1 <0>         0.1726
     35 H9          3.4337    1.8987    7.2254 H         1 <0>         0.1287
     36 H10         1.5533    1.3501   -0.3209 H         1 <0>         0.1329
     37 H11         2.1579    2.8764    0.4189 H         1 <0>         0.1080
     38 H12         3.2574    0.0975    4.7511 H         1 <0>         0.1129
     39 H13         1.0794   -0.9064    2.8629 H         1 <0>         0.0844
     40 H14         2.8249   -1.2073    2.6874 H         1 <0>         0.0584
     41 H15         2.8461   -2.3634    4.8809 H         1 <0>         0.0588
     42 H16         1.6936   -3.1333    3.7641 H         1 <0>         0.0634
     43 H17         0.6953   -2.8477    6.0159 H         1 <0>         0.0618
     44 H18        -0.1642   -1.8643    4.8066 H         1 <0>         0.0637
     45 H19         2.0138   -0.8604    6.6949 H         1 <0>         0.0636
     46 H20         0.2682   -0.5595    6.8704 H         1 <0>         0.0663
     47 H21         1.3996    1.3665    5.7936 H         1 <0>         0.0668
     48 H22         0.2470    0.5967    4.6768 H         1 <0>         0.0735
     49 H23         4.1939    0.3914   -1.4111 H         1 <0>         0.3966
     50 H24         6.0402    2.6219   -1.6772 H         1 <0>         0.0845
     51 H25         7.0879   -0.2236   -1.3273 H         1 <0>         0.0530
     52 H26         8.0659    1.1950   -1.7735 H         1 <0>         0.0623
     53 H27         7.3008    1.1107   -0.1686 H         1 <0>         0.0698
     54 H28         4.8923    1.6729   -3.6598 H         1 <0>         0.0611
     55 H29         6.6595    1.5234   -3.8122 H         1 <0>         0.0735
     56 H30         5.6814    0.1047   -3.3660 H         1 <0>         0.0609
@<TRIPOS>BOND
     1    1    2 1
     2    1   29 1
     3    1   30 1
     4    1   31 1
     5    2    7 ar
     6    2    3 ar
     7    3    4 ar
     8    3   32 1
     9    4    5 ar
    10    4   33 1
    11    5    6 ar
    12    5    8 1
    13    6    7 ar
    14    6   34 1
    15    7   35 1
    16    8    9 2
    17    8   10 am
    18   10   15 1
    19   10   11 1
    20   11   12 1
    21   11   13 1
    22   11   23 1
    23   13   14 1
    24   13   36 1
    25   13   37 1
    26   14   15 1
    27   15   16 1
    28   15   17 1
    29   17   22 1
    30   17   18 1
    31   17   38 1
    32   18   19 1
    33   18   39 1
    34   18   40 1
    35   19   20 1
    36   19   41 1
    37   19   42 1
    38   20   21 1
    39   20   43 1
    40   20   44 1
    41   21   22 1
    42   21   45 1
    43   21   46 1
    44   22   47 1
    45   22   48 1
    46   23   24 2
    47   23   25 am
    48   25   26 1
    49   25   49 1
    50   26   27 1
    51   26   28 1
    52   26   50 1
    53   27   51 1
    54   27   52 1
    55   27   53 1
    56   28   54 1
    57   28   55 1
    58   28   56 1
@<TRIPOS>MOLECULE
ZINC07373220
   35    36     0     0     0
SMALL
USER_CHARGES
N-(4-acetylphenyl)-5-bromo-2-methyl-benzenesulfonamide
@<TRIPOS>ATOM
      1 C1          0.4995    1.3132   -5.3257 C.3       1 <0>        -0.1450
      2 C2          1.4176    1.7269   -4.2045 C.ar      1 <0>         0.0361
      3 C3          2.5193    2.5189   -4.4700 C.ar      1 <0>        -0.1341
      4 C4          3.3610    2.8993   -3.4420 C.ar      1 <0>        -0.0268
      5 C5          3.1012    2.4871   -2.1472 C.ar      1 <0>        -0.1193
      6 C6          1.9993    1.6945   -1.8822 C.ar      1 <0>         0.0156
      7 C7          1.1547    1.3192   -2.9102 C.ar      1 <0>        -0.6770
      8 S1         -0.2533    0.3154   -2.5717 S.o2      1 <0>         2.6923
      9 O1         -0.2262   -0.7518   -3.5095 O.2       1 <0>        -0.9383
     10 O2         -0.2674    0.0958   -1.1678 O.2       1 <0>        -0.9424
     11 N1         -1.5953    1.2200   -2.9227 N.pl3     1 <0>        -1.0556
     12 C8         -1.8377    2.3999   -2.2313 C.ar      1 <0>         0.1743
     13 C9         -1.7244    2.4273   -0.8430 C.ar      1 <0>        -0.1644
     14 C10        -1.9571    3.5864   -0.1598 C.ar      1 <0>        -0.0475
     15 C11        -2.3209    4.7465   -0.8560 C.ar      1 <0>        -0.1809
     16 C12        -2.4389    4.7132   -2.2517 C.ar      1 <0>        -0.0413
     17 C13        -2.1992    3.5511   -2.9275 C.ar      1 <0>        -0.1405
     18 C14        -2.5771    5.9933   -0.1255 C.2       1 <0>         0.3942
     19 O3         -2.9886    6.9692   -0.7169 O.2       1 <0>        -0.4573
     20 C15        -2.3289    6.0611    1.3594 C.3       1 <0>        -0.1945
     21 Br1         4.2529    3.0067   -0.7402 Br        1 <0>        -0.0320
     22 H1          0.8917    0.4157   -5.8040 H         1 <0>         0.1035
     23 H2         -0.4931    1.1072   -4.9253 H         1 <0>         0.0634
     24 H3          0.4359    2.1173   -6.0587 H         1 <0>         0.0911
     25 H4          2.7220    2.8406   -5.4808 H         1 <0>         0.1451
     26 H5          4.2212    3.5185   -3.6494 H         1 <0>         0.1443
     27 H6          1.7961    1.3724   -0.8715 H         1 <0>         0.1549
     28 H7         -2.2120    0.9258   -3.6111 H         1 <0>         0.4313
     29 H8         -1.4482    1.5314   -0.3068 H         1 <0>         0.1628
     30 H9         -1.8646    3.6079    0.9160 H         1 <0>         0.1435
     31 H10        -2.7188    5.6053   -2.7923 H         1 <0>         0.1398
     32 H11        -2.2896    3.5246   -4.0034 H         1 <0>         0.1365
     33 H12        -1.9139    5.2050    1.6674 H         1 <0>         0.0756
     34 H13        -1.6560    6.8903    1.5778 H         1 <0>         0.0950
     35 H14        -3.2747    6.2142    1.8792 H         1 <0>         0.0973
@<TRIPOS>BOND
     1    1    2 1
     2    1   22 1
     3    1   23 1
     4    1   24 1
     5    2    7 ar
     6    2    3 ar
     7    3    4 ar
     8    3   25 1
     9    4    5 ar
    10    4   26 1
    11    5    6 ar
    12    5   21 1
    13    6    7 ar
    14    6   27 1
    15    7    8 1
    16    8    9 2
    17    8   10 2
    18    8   11 1
    19   11   12 1
    20   11   28 1
    21   12   17 ar
    22   12   13 ar
    23   13   14 ar
    24   13   29 1
    25   14   15 ar
    26   14   30 1
    27   15   16 ar
    28   15   18 1
    29   16   17 ar
    30   16   31 1
    31   17   32 1
    32   18   19 2
    33   18   20 1
    34   20   33 1
    35   20   34 1
    36   20   35 1
@<TRIPOS>MOLECULE
ZINC22197220
   36    38     0     0     0
SMALL
USER_CHARGES
N-[[5-(4-bromophenyl)-2-furyl]methyl]-2-methyl-furan-3-carboxamide
@<TRIPOS>ATOM
      1 C1         -1.5509    4.4773    0.0387 C.3       1 <0>        -0.1016
      2 C2         -0.7176    3.2217    0.0249 C.2       1 <0>         0.0872
      3 C3         -1.1983    1.9450    0.0175 C.2       1 <0>        -0.2518
      4 C4         -0.0126    1.0758    0.0080 C.2       1 <0>        -0.1909
      5 C5          1.0476    1.8982    0.0023 C.2       1 <0>        -0.0339
      6 O1          0.6178    3.1697    0.0124 O.3       1 <0>        -0.1754
      7 C6         -2.6109    1.5249    0.0209 C.2       1 <0>         0.5980
      8 O2         -3.4940    2.3610    0.0286 O.2       1 <0>        -0.5425
      9 N1         -2.9241    0.2140    0.0156 N.am      1 <0>        -0.7333
     10 C7         -4.3283   -0.2036    0.0190 C.3       1 <0>         0.2049
     11 C8         -4.4048   -1.7086    0.0117 C.2       1 <0>        -0.0257
     12 C9         -4.4403   -2.4986    1.1026 C.2       1 <0>        -0.1772
     13 C10        -4.5107   -3.8301    0.6459 C.2       1 <0>        -0.1849
     14 C11        -4.5143   -3.7784   -0.7127 C.2       1 <0>         0.0333
     15 O3         -4.4547   -2.4849   -1.0832 O.3       1 <0>        -0.1621
     16 C12        -4.5780   -4.9397   -1.6245 C.ar      1 <0>        -0.0031
     17 C13        -4.6364   -6.2348   -1.1069 C.ar      1 <0>        -0.0910
     18 C14        -4.7015   -7.3143   -1.9632 C.ar      1 <0>        -0.0854
     19 C15        -4.6976   -7.1159   -3.3334 C.ar      1 <0>        -0.0855
     20 C16        -4.6341   -5.8342   -3.8529 C.ar      1 <0>        -0.0862
     21 C17        -4.5744   -4.7462   -3.0070 C.ar      1 <0>        -0.0956
     22 Br1        -4.7786   -8.6019   -4.5001 Br        1 <0>        -0.0422
     23 H1         -2.6177    4.2093    0.0472 H         1 <0>         0.1216
     24 H2         -1.3298    5.0739   -0.8586 H         1 <0>         0.0854
     25 H3         -1.3134    5.0651    0.9376 H         1 <0>         0.0854
     26 H4          0.0021   -0.0041    0.0020 H         1 <0>         0.1565
     27 H5          2.0817    1.5868   -0.0093 H         1 <0>         0.2089
     28 H6         -2.1254   -0.5423    0.0087 H         1 <0>         0.4255
     29 H7         -4.8240    0.1844    0.9211 H         1 <0>         0.1037
     30 H8         -4.8311    0.1935   -0.8752 H         1 <0>         0.0877
     31 H9         -4.4190   -2.1731    2.1321 H         1 <0>         0.1564
     32 H10        -4.5533   -4.7195    1.2570 H         1 <0>         0.1558
     33 H11        -4.6346   -6.3911   -0.0383 H         1 <0>         0.1393
     34 H12        -4.7512   -8.3166   -1.5640 H         1 <0>         0.1413
     35 H13        -4.6310   -5.6858   -4.9226 H         1 <0>         0.1394
     36 H14        -4.5246   -3.7469   -3.4135 H         1 <0>         0.1381
@<TRIPOS>BOND
     1    1    2 1
     2    1   23 1
     3    1   24 1
     4    1   25 1
     5    2    6 1
     6    2    3 2
     7    3    4 1
     8    3    7 1
     9    4    5 2
    10    4   26 1
    11    5    6 1
    12    5   27 1
    13    7    8 2
    14    7    9 am
    15    9   10 1
    16    9   28 1
    17   10   11 1
    18   10   29 1
    19   10   30 1
    20   11   15 1
    21   11   12 2
    22   12   13 1
    23   12   31 1
    24   13   14 2
    25   13   32 1
    26   14   15 1
    27   14   16 1
    28   16   21 ar
    29   16   17 ar
    30   17   18 ar
    31   17   33 1
    32   18   19 ar
    33   18   34 1
    34   19   20 ar
    35   19   22 1
    36   20   21 ar
    37   20   35 1
    38   21   36 1
@<TRIPOS>MOLECULE
ZINC40693108
   38    39     0     0     0
SMALL
USER_CHARGES

@<TRIPOS>ATOM
      1 C1          2.2221   -1.6746    1.5583 C.3       1 <0>        -0.1514
      2 C2          1.0931   -1.3573    0.6119 C.ar      1 <0>         0.0385
      3 C3          1.1405   -1.8052   -0.6953 C.ar      1 <0>        -0.1350
      4 C4          0.1053   -1.5148   -1.5635 C.ar      1 <0>        -0.0277
      5 C5         -0.9788   -0.7759   -1.1243 C.ar      1 <0>        -0.1190
      6 C6         -1.0259   -0.3281    0.1833 C.ar      1 <0>         0.0165
      7 C7          0.0078   -0.6235    1.0525 C.ar      1 <0>        -0.6744
      8 S1         -0.0554   -0.0593    2.7205 S.o2      1 <0>         2.6923
      9 O1         -1.2676    0.6696    2.8570 O.2       1 <0>        -0.9455
     10 O2          0.2574   -1.1775    3.5396 O.2       1 <0>        -0.9432
     11 N1          1.1765    1.0300    2.9160 N.pl3     1 <0>        -1.0452
     12 C8          1.2153    2.1907    2.1338 C.ar      1 <0>         0.1438
     13 C9          0.0369    2.8283    1.7766 C.ar      1 <0>        -0.1665
     14 C10         0.0777    3.9746    1.0046 C.ar      1 <0>        -0.0916
     15 C11         1.2911    4.4885    0.5865 C.ar      1 <0>        -0.1253
     16 C12         2.4711    3.8592    0.9380 C.ar      1 <0>        -0.1041
     17 C13         2.4398    2.7121    1.7165 C.ar      1 <0>         0.1512
     18 N2          3.6336    2.0762    2.0781 N.pl3     1 <0>        -0.6835
     19 C14         4.3159    2.4501    3.3194 C.3       1 <0>         0.1128
     20 C15         4.2005    1.0369    1.2151 C.3       1 <0>         0.1125
     21 Br1        -2.3955   -0.3777   -2.3119 Br        1 <0>        -0.0333
     22 H1          1.9753   -2.5682    2.1317 H         1 <0>         0.1038
     23 H2          3.1352   -1.8488    0.9892 H         1 <0>         0.0887
     24 H3          2.3723   -0.8363    2.2386 H         1 <0>         0.0712
     25 H4          1.9870   -2.3817   -1.0381 H         1 <0>         0.1439
     26 H5          0.1426   -1.8644   -2.5846 H         1 <0>         0.1434
     27 H6         -1.8718    0.2491    0.5265 H         1 <0>         0.1538
     28 H7          1.8711    0.8640    3.5723 H         1 <0>         0.4275
     29 H8         -0.9127    2.4293    2.1012 H         1 <0>         0.1594
     30 H9         -0.8411    4.4697    0.7270 H         1 <0>         0.1313
     31 H10         1.3175    5.3840   -0.0167 H         1 <0>         0.1269
     32 H11         3.4172    4.2632    0.6094 H         1 <0>         0.1269
     33 H12         3.9502    1.8282    4.1365 H         1 <0>         0.0332
     34 H13         5.3895    2.3022    3.2027 H         1 <0>         0.0608
     35 H14         4.1156    3.4980    3.5427 H         1 <0>         0.0576
     36 H15         3.5589    0.8972    0.3451 H         1 <0>         0.0613
     37 H16         5.1954    1.3390    0.8881 H         1 <0>         0.0446
     38 H17         4.2690    0.1013    1.7701 H         1 <0>         0.0439
@<TRIPOS>BOND
     1    1    2 1
     2    1   22 1
     3    1   23 1
     4    1   24 1
     5    2    7 ar
     6    2    3 ar
     7    3    4 ar
     8    3   25 1
     9    4    5 ar
    10    4   26 1
    11    5    6 ar
    12    5   21 1
    13    6    7 ar
    14    6   27 1
    15    7    8 1
    16    8    9 2
    17    8   10 2
    18    8   11 1
    19   11   12 1
    20   11   28 1
    21   12   17 ar
    22   12   13 ar
    23   13   14 ar
    24   13   29 1
    25   14   15 ar
    26   14   30 1
    27   15   16 ar
    28   15   31 1
    29   16   17 ar
    30   16   32 1
    31   17   18 1
    32   18   19 1
    33   18   20 1
    34   19   33 1
    35   19   34 1
    36   19   35 1
    37   20   36 1
    38   20   37 1
    39   20   38 1
@<TRIPOS>MOLECULE
ZINC45097463
   42    44     0     0     0
SMALL
USER_CHARGES

@<TRIPOS>ATOM
      1 C1         -0.0184    1.5028    0.0103 C.3       1 <0>        -0.1056
      2 C2          0.0021   -0.0041    0.0020 C.2       1 <0>         0.1067
      3 C3          0.0079   -0.7962   -1.0952 C.2       1 <0>        -0.2414
      4 C4          0.0284   -2.1274   -0.6653 C.2       1 <0>         0.0649
      5 N1          0.0347   -2.1353    0.6435 N.2       1 <0>        -0.2799
      6 N2          0.0238   -0.8073    1.0894 N.pl3     1 <0>        -0.3207
      7 C5          0.0316   -0.3857    2.4270 C.ar      1 <0>         0.1407
      8 C6          0.7044    0.7744    2.7861 C.ar      1 <0>        -0.1021
      9 C7          0.7111    1.1880    4.1038 C.ar      1 <0>        -0.1312
     10 C8          0.0475    0.4461    5.0666 C.ar      1 <0>         0.1013
     11 C9         -0.6241   -0.7114    4.7103 C.ar      1 <0>        -0.1330
     12 C10        -0.6382   -1.1248    3.3926 C.ar      1 <0>        -0.0795
     13 F1          0.0559    0.8518    6.3553 F         1 <0>        -0.1322
     14 C11        -0.0058   -0.3272   -2.5273 C.3       1 <0>         0.2284
     15 H1         -0.6085    0.5774   -2.6076 H         1 <0>         0.0975
     16 C12         1.4249   -0.0286   -2.9799 C.3       1 <0>        -0.1583
     17 N3         -0.5789   -1.3730   -3.3782 N.am      1 <0>        -0.7191
     18 C13        -1.1559   -1.0462   -4.5515 C.2       1 <0>         0.5591
     19 O1         -1.2008    0.1166   -4.9038 O.2       1 <0>        -0.5083
     20 C14        -1.7335   -2.1002   -5.4091 C.ar      1 <0>        -0.1435
     21 C15        -1.6886   -3.4365   -5.0042 C.ar      1 <0>        -0.0448
     22 C16        -2.2295   -4.4160   -5.8081 C.ar      1 <0>        -0.1575
     23 C17        -2.8179   -4.0783   -7.0181 C.ar      1 <0>         0.1424
     24 C18        -2.8661   -2.7550   -7.4259 C.ar      1 <0>        -0.1578
     25 C19        -2.3326   -1.7642   -6.6264 C.ar      1 <0>         0.0420
     26 Cl1        -2.3992   -0.1057   -7.1349 Cl        1 <0>        -0.0119
     27 F2         -3.3458   -5.0436   -7.8021 F         1 <0>        -0.1246
     28 H2          1.0042    1.8801    0.0026 H         1 <0>         0.0885
     29 H3         -0.5455    1.8639   -0.8728 H         1 <0>         0.0931
     30 H4         -0.5286    1.8543    0.9071 H         1 <0>         0.0790
     31 H5          0.0370   -2.9987   -1.3035 H         1 <0>         0.1850
     32 H6          1.2226    1.3528    2.0356 H         1 <0>         0.1440
     33 H7          1.2343    2.0904    4.3835 H         1 <0>         0.1485
     34 H8         -1.1411   -1.2887    5.4626 H         1 <0>         0.1475
     35 H9         -1.1658   -2.0251    3.1144 H         1 <0>         0.1446
     36 H10         1.8514    0.7495   -2.3468 H         1 <0>         0.0665
     37 H11         2.0277   -0.9333   -2.8996 H         1 <0>         0.0590
     38 H12         1.4150    0.3106   -4.0157 H         1 <0>         0.0662
     39 H13        -0.5431   -2.3007   -3.0972 H         1 <0>         0.3965
     40 H14        -1.2303   -3.7013   -4.0629 H         1 <0>         0.1447
     41 H15        -2.1951   -5.4492   -5.4956 H         1 <0>         0.1507
     42 H16        -3.3254   -2.4978   -8.3689 H         1 <0>         0.1547
@<TRIPOS>BOND
     1    1    2 1
     2    1   28 1
     3    1   29 1
     4    1   30 1
     5    2    6 1
     6    2    3 2
     7    3    4 1
     8    3   14 1
     9    4    5 2
    10    4   31 1
    11    5    6 1
    12    6    7 1
    13    7   12 ar
    14    7    8 ar
    15    8    9 ar
    16    8   32 1
    17    9   10 ar
    18    9   33 1
    19   10   11 ar
    20   10   13 1
    21   11   12 ar
    22   11   34 1
    23   12   35 1
    24   14   15 1
    25   14   16 1
    26   14   17 1
    27   16   36 1
    28   16   37 1
    29   16   38 1
    30   17   18 am
    31   17   39 1
    32   18   19 2
    33   18   20 1
    34   20   25 ar
    35   20   21 ar
    36   21   22 ar
    37   21   40 1
    38   22   23 ar
    39   22   41 1
    40   23   24 ar
    41   23   27 1
    42   24   25 ar
    43   24   42 1
    44   25   26 1
@<TRIPOS>MOLECULE
ZINC08788482
   61    63     0     0     0
SMALL
USER_CHARGES
8-(diallylaminomethyl)-7-hydroxy-3-(2-isopropylphenoxy)-2-(trifluoromethyl)chromen-4-one
@<TRIPOS>ATOM
      1 C1         -6.6150    7.5284   -0.3884 C.3       1 <0>        -0.1454
      2 C2         -6.5062    6.0057   -0.4903 C.3       1 <0>        -0.0551
      3 C3         -7.9040    5.4039   -0.6480 C.3       1 <0>        -0.1443
      4 C4         -5.6645    5.6411   -1.6860 C.ar      1 <0>        -0.0773
      5 C5         -6.0554    6.0324   -2.9519 C.ar      1 <0>        -0.0768
      6 C6         -5.2837    5.6983   -4.0493 C.ar      1 <0>        -0.1315
      7 C7         -4.1188    4.9718   -3.8831 C.ar      1 <0>        -0.0832
      8 C8         -3.7208    4.5821   -2.6192 C.ar      1 <0>        -0.1899
      9 C9         -4.4964    4.9117   -1.5165 C.ar      1 <0>         0.0995
     10 O1         -4.1096    4.5256   -0.2725 O.3       1 <0>        -0.2206
     11 C10        -2.9567    3.8116   -0.1546 C.2       1 <0>         0.0101
     12 C11        -1.7147    4.4819    0.0349 C.2       1 <0>         0.4055
     13 O2         -1.6522    5.6985    0.0957 O.2       1 <0>        -0.3920
     14 C12        -0.5087    3.6448    0.1548 C.ar      1 <0>        -0.2199
     15 C13         0.7535    4.2101    0.3428 C.ar      1 <0>         0.0252
     16 C14         1.8485    3.4012    0.4501 C.ar      1 <0>        -0.1606
     17 C15         1.7122    2.0164    0.3729 C.ar      1 <0>         0.2123
     18 C16         0.4672    1.4404    0.1866 C.ar      1 <0>        -0.2076
     19 C17        -0.6551    2.2488    0.0704 C.ar      1 <0>         0.1861
     20 O3         -1.8799    1.7135   -0.1057 O.3       1 <0>        -0.1971
     21 C18        -2.9830    2.4654   -0.2160 C.2       1 <0>         0.0284
     22 C19        -4.3087    1.7775   -0.4166 C.3       1 <0>         0.5288
     23 F1         -4.5504    1.6209   -1.7856 F         1 <0>        -0.1491
     24 F2         -4.2800    0.5213    0.1985 F         1 <0>        -0.1574
     25 F3         -5.3264    2.5516    0.1511 F         1 <0>        -0.1326
     26 C20         0.3317   -0.0583    0.1040 C.3       1 <0>         0.0567
     27 C21        -1.1840   -0.1660    1.9891 C.3       1 <0>         0.0306
     28 C22        -2.2991   -0.7901    1.1902 C.2       1 <0>        -0.2228
     29 C23        -3.2263   -1.4901    1.7955 C.2       1 <0>        -0.1052
     30 C24         0.2090   -2.0704    1.4453 C.3       1 <0>         0.0336
     31 C25         0.1620   -2.5810    2.8624 C.2       1 <0>        -0.2324
     32 C26        -0.7304   -3.4761    3.2069 C.2       1 <0>        -0.1065
     33 O4          2.8100    1.2253    0.4817 O.3       1 <0>        -0.4890
     34 H1         -5.6192    7.9571   -0.2761 H         1 <0>         0.0565
     35 H2         -7.0796    7.9208   -1.2930 H         1 <0>         0.0588
     36 H3         -7.2238    7.7921    0.4764 H         1 <0>         0.0627
     37 H4         -6.0416    5.6133    0.4143 H         1 <0>         0.0835
     38 H5         -7.8264    4.3191   -0.7206 H         1 <0>         0.0547
     39 H6         -8.5128    5.6676    0.2168 H         1 <0>         0.0627
     40 H7         -8.3686    5.7962   -1.5526 H         1 <0>         0.0590
     41 H8         -6.9646    6.6002   -3.0844 H         1 <0>         0.1383
     42 H9         -5.5910    6.0055   -5.0380 H         1 <0>         0.1329
     43 H10        -3.5176    4.7124   -4.7420 H         1 <0>         0.1304
     44 H11        -2.8088    4.0183   -2.4896 H         1 <0>         0.1132
     45 H12         0.8638    5.2827    0.4029 H         1 <0>         0.1649
     46 H13         2.8258    3.8373    0.5952 H         1 <0>         0.1627
     47 H14        -0.5140   -0.3120   -0.5351 H         1 <0>         0.1425
     48 H15         1.2440   -0.4830   -0.3148 H         1 <0>         0.1438
     49 H16        -1.2667   -0.4750    3.0311 H         1 <0>         0.1322
     50 H17        -1.2550    0.9198    1.9254 H         1 <0>         0.1188
     51 H18        -2.3338   -0.6601    0.1186 H         1 <0>         0.1327
     52 H19        -3.1915   -1.6201    2.8671 H         1 <0>         0.1105
     53 H20        -4.0254   -1.9373    1.2229 H         1 <0>         0.1226
     54 H21        -0.6238   -2.4892    0.8804 H         1 <0>         0.1335
     55 H22         1.1492   -2.3697    0.9822 H         1 <0>         0.1347
     56 H23         0.8641   -2.2091    3.5939 H         1 <0>         0.1334
     57 H24        -1.4325   -3.8480    2.4753 H         1 <0>         0.1110
     58 H25        -0.7640   -3.8420    4.2224 H         1 <0>         0.1221
     59 H26         3.2418    1.0334   -0.3620 H         1 <0>         0.4180
     60 N1          0.1305   -0.5945    1.4666 N.4       1 <0>        -0.3879
     61 H27         0.8684   -0.2302    2.0807 H         1 <0>         0.4311
@<TRIPOS>BOND
     1    1    2 1
     2    1   34 1
     3    1   35 1
     4    1   36 1
     5    2    3 1
     6    2    4 1
     7    2   37 1
     8    3   38 1
     9    3   39 1
    10    3   40 1
    11    4    9 ar
    12    4    5 ar
    13    5    6 ar
    14    5   41 1
    15    6    7 ar
    16    6   42 1
    17    7    8 ar
    18    7   43 1
    19    8    9 ar
    20    8   44 1
    21    9   10 1
    22   10   11 1
    23   11   21 2
    24   11   12 1
    25   12   13 2
    26   12   14 1
    27   14   19 ar
    28   14   15 ar
    29   15   16 ar
    30   15   45 1
    31   16   17 ar
    32   16   46 1
    33   17   18 ar
    34   17   33 1
    35   18   19 ar
    36   18   26 1
    37   19   20 1
    38   20   21 1
    39   21   22 1
    40   22   23 1
    41   22   24 1
    42   22   25 1
    43   26   47 1
    44   26   48 1
    45   26   60 1
    46   27   28 1
    47   27   49 1
    48   27   50 1
    49   27   60 1
    50   28   29 2
    51   28   51 1
    52   29   52 1
    53   29   53 1
    54   30   31 1
    55   30   54 1
    56   30   55 1
    57   30   60 1
    58   31   32 2
    59   31   56 1
    60   32   57 1
    61   32   58 1
    62   33   59 1
    63   60   61 1
@<TRIPOS>MOLECULE
ZINC27240557
   69    71     0     0     0
SMALL
USER_CHARGES
(2R,3S)-1-(azepan-1-yl)-2-(4-chloro-2-methyl-phenoxy)-3-(4-ethoxyphenyl)hex-5-en-3-ol
@<TRIPOS>ATOM
      1 C1          5.1268    0.2586    6.9067 C.3       1 <0>        -0.1589
      2 C2          4.1861    0.1854    5.7022 C.3       1 <0>         0.0533
      3 O1          4.5267    1.2123    4.7687 O.3       1 <0>        -0.3108
      4 C3          3.7821    1.2865    3.6343 C.ar      1 <0>         0.1476
      5 C4          4.0577    2.2596    2.6846 C.ar      1 <0>        -0.1482
      6 C5          3.2991    2.3332    1.5325 C.ar      1 <0>        -0.0338
      7 C6          2.2655    1.4385    1.3256 C.ar      1 <0>        -0.1286
      8 C7          1.9851    0.4713    2.2731 C.ar      1 <0>        -0.0927
      9 C8          2.7447    0.3897    3.4241 C.ar      1 <0>        -0.2076
     10 C9          1.4391    1.5214    0.0681 C.3       1 <0>         0.2008
     11 C10         2.0721    0.6475   -1.0167 C.3       1 <0>        -0.1165
     12 C11         3.4668    1.1390   -1.3072 C.2       1 <0>        -0.1565
     13 C12         4.4820    0.3152   -1.2245 C.2       1 <0>        -0.1807
     14 C13         0.0200    1.0278    0.3569 C.3       1 <0>         0.0292
     15 H1          0.0254   -0.0085    0.7257 H         1 <0>         0.1041
     16 C14        -0.6536    1.9692    1.3574 C.3       1 <0>         0.0079
     17 N1         -1.9432    1.4011    1.7724 N.4       1 <0>        -0.4011
     18 C15        -2.9070    1.3968    0.6493 C.3       1 <0>        -0.0070
     19 C16        -4.3116    1.0819    1.0867 C.3       1 <0>        -0.1429
     20 C17        -5.0515    2.4100    1.3507 C.3       1 <0>        -0.1314
     21 C18        -4.6952    2.9924    2.6398 C.3       1 <0>        -0.1333
     22 C19        -3.1912    3.3249    2.7332 C.3       1 <0>        -0.1477
     23 C20        -2.4370    2.0522    3.0064 C.3       1 <0>        -0.0060
     24 O2         -0.7329    1.0055   -0.8575 O.3       1 <0>        -0.3084
     25 C21        -0.7177   -0.1507   -1.5718 C.ar      1 <0>         0.1073
     26 C22        -0.0563   -1.2650   -1.0758 C.ar      1 <0>        -0.1927
     27 C23        -0.0452   -2.4402   -1.8014 C.ar      1 <0>        -0.0736
     28 C24        -0.6854   -2.5041   -3.0266 C.ar      1 <0>        -0.0525
     29 C25        -1.3414   -1.3927   -3.5251 C.ar      1 <0>        -0.0711
     30 C26        -1.3584   -0.2166   -2.8002 C.ar      1 <0>        -0.0896
     31 C27        -2.0731    0.9938   -3.3436 C.3       1 <0>        -0.1106
     32 Cl1        -0.6650   -3.9805   -3.9395 Cl        1 <0>        -0.0502
     33 O3          1.3898    2.8771   -0.3809 O.3       1 <0>        -0.5670
     34 H2          4.8646   -0.5319    7.6253 H         1 <0>         0.0836
     35 H3          5.0273    1.2415    7.3904 H         1 <0>         0.0696
     36 H4          6.1647    0.1188    6.5703 H         1 <0>         0.0707
     37 H5          4.2856   -0.7975    5.2185 H         1 <0>         0.0650
     38 H6          3.1481    0.3252    6.0385 H         1 <0>         0.0627
     39 H7          4.8650    2.9587    2.8457 H         1 <0>         0.1369
     40 H8          3.5133    3.0905    0.7929 H         1 <0>         0.1392
     41 H9          1.1742   -0.2234    2.1114 H         1 <0>         0.1144
     42 H10         2.5279   -0.3685    4.1621 H         1 <0>         0.1325
     43 H11         2.1158   -0.3950   -0.6685 H         1 <0>         0.0788
     44 H12         1.4655    0.7031   -1.9326 H         1 <0>         0.0834
     45 H13         3.6324    2.1894   -1.5887 H         1 <0>         0.1170
     46 H14         5.5000    0.6739   -1.4365 H         1 <0>         0.1042
     47 H15         4.3164   -0.7352   -0.9430 H         1 <0>         0.0952
     48 H16        -0.0064    2.0919    2.2384 H         1 <0>         0.1516
     49 H17        -0.8194    2.9487    0.8850 H         1 <0>         0.1471
     50 H18        -2.9183    2.3878    0.1720 H         1 <0>         0.1267
     51 H19        -2.6071    0.6380   -0.0884 H         1 <0>         0.1349
     52 H20        -4.8246    0.5175    0.2941 H         1 <0>         0.1083
     53 H21        -4.2828    0.4789    2.0063 H         1 <0>         0.0833
     54 H22        -4.7940    3.1356    0.5651 H         1 <0>         0.0736
     55 H23        -6.1371    2.2325    1.3443 H         1 <0>         0.0844
     56 H24        -5.2610    3.9236    2.7904 H         1 <0>         0.0841
     57 H25        -4.9386    2.2815    3.4432 H         1 <0>         0.0727
     58 H26        -2.8533    3.7650    1.7834 H         1 <0>         0.0841
     59 H27        -3.0244    4.0428    3.5498 H         1 <0>         0.1078
     60 H28        -3.1153    1.3672    3.5362 H         1 <0>         0.1312
     61 H29        -1.5849    2.2999    3.6565 H         1 <0>         0.1292
     62 H30         0.4470   -1.2143   -0.1216 H         1 <0>         0.1371
     63 H31         0.4667   -3.3087   -1.4141 H         1 <0>         0.1411
     64 H32        -1.8402   -1.4443   -4.4816 H         1 <0>         0.1465
     65 H33        -2.5161    0.7501   -4.3205 H         1 <0>         0.0744
     66 H34        -1.3568    1.8202   -3.4616 H         1 <0>         0.0768
     67 H35        -2.8680    1.2944   -2.6452 H         1 <0>         0.0701
     68 H36         0.8284    3.1350   -1.2910 H         1 <0>         0.4183
     69 H37        -1.7970    0.3435    2.0371 H         1 <0>         0.4327
@<TRIPOS>BOND
     1    1    2 1
     2    1   34 1
     3    1   35 1
     4    1   36 1
     5    2    3 1
     6    2   37 1
     7    2   38 1
     8    3    4 1
     9    4    9 ar
    10    4    5 ar
    11    5    6 ar
    12    5   39 1
    13    6    7 ar
    14    6   40 1
    15    7    8 ar
    16    7   10 1
    17    8    9 ar
    18    8   41 1
    19    9   42 1
    20   10   11 1
    21   10   14 1
    22   10   33 1
    23   11   12 1
    24   11   43 1
    25   11   44 1
    26   12   13 2
    27   12   45 1
    28   13   46 1
    29   13   47 1
    30   14   15 1
    31   14   16 1
    32   14   24 1
    33   16   17 1
    34   16   48 1
    35   16   49 1
    36   17   23 1
    37   17   18 1
    38   17   69 1
    39   18   19 1
    40   18   50 1
    41   18   51 1
    42   19   20 1
    43   19   52 1
    44   19   53 1
    45   20   21 1
    46   20   54 1
    47   20   55 1
    48   21   22 1
    49   21   56 1
    50   21   57 1
    51   22   23 1
    52   22   58 1
    53   22   59 1
    54   23   60 1
    55   23   61 1
    56   24   25 1
    57   25   30 ar
    58   25   26 ar
    59   26   27 ar
    60   26   62 1
    61   27   28 ar
    62   27   63 1
    63   28   29 ar
    64   28   32 1
    65   29   30 ar
    66   29   64 1
    67   30   31 1
    68   31   65 1
    69   31   66 1
    70   31   67 1
    71   33   68 1
@<TRIPOS>MOLECULE
ZINC01871094
   60    63     0     0     0
SMALL
USER_CHARGES

@<TRIPOS>ATOM
      1 C1         -1.3842   -6.5658   -4.7279 C.3       1 <0>        -0.1488
      2 C2         -0.7229   -6.0223   -5.9961 C.3       1 <0>        -0.0868
      3 C3          0.1819   -4.8718   -5.6372 C.ar      1 <0>        -0.0949
      4 C4         -0.3168   -3.5824   -5.6155 C.ar      1 <0>        -0.0765
      5 C5          0.5104   -2.5260   -5.2869 C.ar      1 <0>        -0.1206
      6 C6          1.8429   -2.7599   -4.9779 C.ar      1 <0>         0.1026
      7 C7          2.3407   -4.0550   -4.9999 C.ar      1 <0>        -0.1829
      8 C8          1.5079   -5.1083   -5.3245 C.ar      1 <0>        -0.0778
      9 O1          2.6587   -1.7226   -4.6547 O.3       1 <0>        -0.2205
     10 C9          3.9823   -1.9832   -4.4730 C.2       1 <0>         0.0130
     11 C10         4.7879   -2.4010   -5.5704 C.2       1 <0>         0.3994
     12 O2          4.3187   -2.5348   -6.6882 O.2       1 <0>        -0.3903
     13 C11         6.2115   -2.6646   -5.2993 C.ar      1 <0>        -0.2212
     14 C12         7.0803   -3.0776   -6.3106 C.ar      1 <0>         0.0262
     15 C13         8.3940   -3.3118   -6.0210 C.ar      1 <0>        -0.1609
     16 C14         8.8709   -3.1408   -4.7227 C.ar      1 <0>         0.2123
     17 C15         8.0218   -2.7320   -3.7084 C.ar      1 <0>        -0.2071
     18 C16         6.6838   -2.4893   -3.9865 C.ar      1 <0>         0.1868
     19 O3          5.8355   -2.0899   -3.0176 O.3       1 <0>        -0.2011
     20 C17         4.5406   -1.8422   -3.2544 C.2       1 <0>         0.0230
     21 C18         3.6703   -1.3929   -2.1091 C.3       1 <0>         0.5348
     22 F1          2.3343   -1.3611   -2.5232 F         1 <0>        -0.1285
     23 F2          3.8064   -2.2866   -1.0414 F         1 <0>        -0.1558
     24 F3          4.0621   -0.1138   -1.6995 F         1 <0>        -0.1589
     25 C19         8.5483   -2.5512   -2.3080 C.3       1 <0>         0.0491
     26 N1          9.0180   -1.1700   -2.1360 N.4       1 <0>        -0.3804
     27 C20         7.8807   -0.2497   -2.2541 C.3       1 <0>        -0.0123
     28 C21         8.3763    1.1948   -2.1565 C.3       1 <0>        -0.1405
     29 C22         9.0646    1.4023   -0.8043 C.3       1 <0>        -0.1047
     30 C23        10.2024    0.3874   -0.6607 C.3       1 <0>        -0.1421
     31 C24         9.6391   -1.0271   -0.8137 C.3       1 <0>        -0.0076
     32 C25         9.6324    2.8211   -0.7316 C.3       1 <0>        -0.1535
     33 O4         10.1795   -3.3775   -4.4501 O.3       1 <0>        -0.4795
     34 H1         -0.6154   -6.9103   -4.0363 H         1 <0>         0.0547
     35 H2         -1.9697   -5.7764   -4.2566 H         1 <0>         0.0574
     36 H3         -2.0387   -7.3979   -4.9875 H         1 <0>         0.0623
     37 H4         -0.1374   -6.8117   -6.4674 H         1 <0>         0.0742
     38 H5         -1.4917   -5.6778   -6.6877 H         1 <0>         0.0769
     39 H6         -1.3539   -3.4009   -5.8562 H         1 <0>         0.1390
     40 H7          0.1205   -1.5190   -5.2709 H         1 <0>         0.1391
     41 H8          3.3773   -4.2398   -4.7598 H         1 <0>         0.1118
     42 H9          1.8939   -6.1168   -5.3381 H         1 <0>         0.1299
     43 H10         6.7149   -3.2118   -7.3181 H         1 <0>         0.1653
     44 H11         9.0673   -3.6319   -6.8024 H         1 <0>         0.1633
     45 H12         7.7529   -2.7564   -1.5915 H         1 <0>         0.1435
     46 H13         9.3759   -3.2401   -2.1392 H         1 <0>         0.1540
     47 H14         7.3899   -0.4008   -3.2155 H         1 <0>         0.1182
     48 H15         7.1709   -0.4449   -1.4502 H         1 <0>         0.1326
     49 H16         9.0860    1.3911   -2.9601 H         1 <0>         0.0880
     50 H17         7.5301    1.8765   -2.2426 H         1 <0>         0.1132
     51 H18         8.3421    1.2560   -0.0013 H         1 <0>         0.0904
     52 H19        10.9500    0.5670   -1.4333 H         1 <0>         0.0886
     53 H20        10.6615    0.4920    0.3223 H         1 <0>         0.1150
     54 H21         8.8919   -1.2058   -0.0406 H         1 <0>         0.1315
     55 H22        10.4466   -1.7522   -0.7118 H         1 <0>         0.1346
     56 H23         8.8226    3.5426   -0.8410 H         1 <0>         0.0677
     57 H24        10.1220    2.9677    0.2311 H         1 <0>         0.0683
     58 H25        10.3570    2.9640   -1.5333 H         1 <0>         0.0617
     59 H26        10.7490   -2.6027   -4.5521 H         1 <0>         0.4072
     60 H27         9.6974   -0.9554   -2.8505 H         1 <0>         0.4171
@<TRIPOS>BOND
     1    1    2 1
     2    1   34 1
     3    1   35 1
     4    1   36 1
     5    2    3 1
     6    2   37 1
     7    2   38 1
     8    3    8 ar
     9    3    4 ar
    10    4    5 ar
    11    4   39 1
    12    5    6 ar
    13    5   40 1
    14    6    7 ar
    15    6    9 1
    16    7    8 ar
    17    7   41 1
    18    8   42 1
    19    9   10 1
    20   10   20 2
    21   10   11 1
    22   11   12 2
    23   11   13 1
    24   13   18 ar
    25   13   14 ar
    26   14   15 ar
    27   14   43 1
    28   15   16 ar
    29   15   44 1
    30   16   17 ar
    31   16   33 1
    32   17   18 ar
    33   17   25 1
    34   18   19 1
    35   19   20 1
    36   20   21 1
    37   21   22 1
    38   21   23 1
    39   21   24 1
    40   25   26 1
    41   25   45 1
    42   25   46 1
    43   26   31 1
    44   26   27 1
    45   26   60 1
    46   27   28 1
    47   27   47 1
    48   27   48 1
    49   28   29 1
    50   28   49 1
    51   28   50 1
    52   29   30 1
    53   29   32 1
    54   29   51 1
    55   30   31 1
    56   30   52 1
    57   30   53 1
    58   31   54 1
    59   31   55 1
    60   32   56 1
    61   32   57 1
    62   32   58 1
    63   33   59 1
@<TRIPOS>MOLECULE
ZINC40740339
   49    51     0     0     0
SMALL
USER_CHARGES

@<TRIPOS>ATOM
      1 C1         -0.0187    1.5258    0.0104 C.3       1 <0>        -0.1560
      2 C2          0.0021   -0.0041    0.0020 C.3       1 <0>         0.0511
      3 O1         -1.3386   -0.4987    0.0122 O.3       1 <0>        -0.2849
      4 C3         -1.4984   -1.8492    0.0064 C.ar      1 <0>         0.1338
      5 C4         -0.3890   -2.6797   -0.0029 C.ar      1 <0>        -0.1677
      6 C5         -0.5528   -4.0523   -0.0092 C.ar      1 <0>        -0.1272
      7 C6         -1.8221   -4.6003   -0.0063 C.ar      1 <0>        -0.0924
      8 C7         -2.9337   -3.7773    0.0030 C.ar      1 <0>        -0.0806
      9 C8         -2.7759   -2.3999    0.0157 C.ar      1 <0>         0.1287
     10 O2         -3.8677   -1.5889    0.0305 O.3       1 <0>        -0.2998
     11 C9         -4.4006   -1.1952   -1.2356 C.3       1 <0>         0.1057
     12 C10        -5.5980   -0.3054   -1.0219 C.ar      1 <0>        -0.0864
     13 C11        -6.8613   -0.8589   -0.9165 C.ar      1 <0>        -0.0016
     14 C12        -7.9603   -0.0414   -0.7204 C.ar      1 <0>        -0.1091
     15 C13        -7.7960    1.3280   -0.6302 C.ar      1 <0>        -0.0776
     16 C14        -6.5339    1.8816   -0.7355 C.ar      1 <0>        -0.1094
     17 C15        -5.4335    1.0647   -0.9255 C.ar      1 <0>        -0.0015
     18 Cl1        -3.8475    1.7596   -1.0499 Cl        1 <0>        -0.0443
     19 Cl2        -7.0680   -2.5787   -1.0309 Cl        1 <0>        -0.0461
     20 Br1        -4.6682   -4.5306    0.0058 Br        1 <0>         0.0063
     21 C16         0.6550   -4.9535   -0.0199 C.3       1 <0>         0.0476
     22 N1          1.0543   -5.2535    1.3616 N.4       1 <0>        -0.5123
     23 C17         2.2317   -6.1319    1.3513 C.3       1 <0>         0.0940
     24 C18         2.6413   -6.4397    2.7685 C.2       1 <0>        -0.1205
     25 C19         2.2067   -7.4779    3.5051 C.2       1 <0>        -0.1337
     26 C20         2.8430   -7.3817    4.7640 C.2       1 <0>        -0.2208
     27 C21         3.6284   -6.2905    4.7214 C.2       1 <0>         0.0190
     28 O3          3.5066   -5.7272    3.5083 O.3       1 <0>        -0.1689
     29 H1          1.0039    1.9031    0.0027 H         1 <0>         0.0857
     30 H2         -0.5459    1.8868   -0.8726 H         1 <0>         0.0680
     31 H3         -0.5289    1.8773    0.9072 H         1 <0>         0.0721
     32 H4          0.5123   -0.3556   -0.8948 H         1 <0>         0.0666
     33 H5          0.5293   -0.3651    0.8851 H         1 <0>         0.0649
     34 H6          0.6037   -2.2544   -0.0056 H         1 <0>         0.1475
     35 H7         -1.9459   -5.6731   -0.0116 H         1 <0>         0.1485
     36 H8         -3.6402   -0.6524   -1.7970 H         1 <0>         0.0782
     37 H9         -4.7016   -2.0812   -1.7946 H         1 <0>         0.0778
     38 H10        -8.9467   -0.4734   -0.6381 H         1 <0>         0.1460
     39 H11        -8.6542    1.9658   -0.4778 H         1 <0>         0.1486
     40 H12        -6.4062    2.9518   -0.6653 H         1 <0>         0.1458
     41 H13         0.4115   -5.8814   -0.5373 H         1 <0>         0.1470
     42 H14         1.4759   -4.4548   -0.5352 H         1 <0>         0.1445
     43 H15         1.2798   -4.3945    1.8406 H         1 <0>         0.4302
     44 H16         1.9882   -7.0598    0.8338 H         1 <0>         0.1592
     45 H17         3.0526   -5.6332    0.8360 H         1 <0>         0.1477
     46 H18         1.5057   -8.2386    3.1947 H         1 <0>         0.1624
     47 H19         2.7215   -8.0550    5.5997 H         1 <0>         0.1642
     48 H20         4.2539   -5.9308    5.5250 H         1 <0>         0.2191
     49 H21         0.2945   -5.7151    1.8387 H         1 <0>         0.4306
@<TRIPOS>BOND
     1    1    2 1
     2    1   29 1
     3    1   30 1
     4    1   31 1
     5    2    3 1
     6    2   32 1
     7    2   33 1
     8    3    4 1
     9    4    9 ar
    10    4    5 ar
    11    5    6 ar
    12    5   34 1
    13    6    7 ar
    14    6   21 1
    15    7    8 ar
    16    7   35 1
    17    8    9 ar
    18    8   20 1
    19    9   10 1
    20   10   11 1
    21   11   12 1
    22   11   36 1
    23   11   37 1
    24   12   17 ar
    25   12   13 ar
    26   13   14 ar
    27   13   19 1
    28   14   15 ar
    29   14   38 1
    30   15   16 ar
    31   15   39 1
    32   16   17 ar
    33   16   40 1
    34   17   18 1
    35   21   22 1
    36   21   41 1
    37   21   42 1
    38   22   23 1
    39   22   43 1
    40   22   49 1
    41   23   24 1
    42   23   44 1
    43   23   45 1
    44   24   28 1
    45   24   25 2
    46   25   26 1
    47   25   46 1
    48   26   27 2
    49   26   47 1
    50   27   28 1
    51   27   48 1
@<TRIPOS>MOLECULE
ZINC02367265
   61    64     0     0     0
SMALL
USER_CHARGES

@<TRIPOS>ATOM
      1 C1         -1.5886    0.5584    0.5928 C.3       1 <0>        -0.1528
      2 C2         -0.0777    0.7962    0.5553 C.3       1 <0>         0.0516
      3 O1          0.5576   -0.0201    1.5413 O.3       1 <0>        -0.3044
      4 C3          1.9107    0.0717    1.6402 C.ar      1 <0>         0.1310
      5 C4          2.6108    0.9327    0.8106 C.ar      1 <0>        -0.1727
      6 C5          3.9864    1.0249    0.9125 C.ar      1 <0>        -0.0920
      7 C6          4.6669    0.2593    1.8411 C.ar      1 <0>        -0.1179
      8 C7          3.9749   -0.6015    2.6723 C.ar      1 <0>        -0.1496
      9 C8          2.5951   -0.6949    2.5791 C.ar      1 <0>         0.0756
     10 O2          1.9123   -1.5375    3.3990 O.3       1 <0>        -0.2082
     11 C9          2.6078   -2.1823    4.3753 C.2       1 <0>         0.0119
     12 C10         3.1829   -1.4469    5.4506 C.2       1 <0>         0.3989
     13 O3          3.0686   -0.2348    5.5241 O.2       1 <0>        -0.3904
     14 C11         3.9210   -2.2112    6.4708 C.ar      1 <0>        -0.2209
     15 C12         4.5190   -1.5789    7.5621 C.ar      1 <0>         0.0258
     16 C13         5.1947   -2.3212    8.4878 C.ar      1 <0>        -0.1610
     17 C14         5.2905   -3.7045    8.3485 C.ar      1 <0>         0.2113
     18 C15         4.7029   -4.3465    7.2718 C.ar      1 <0>        -0.2056
     19 C16         4.0121   -3.6065    6.3223 C.ar      1 <0>         0.1867
     20 O4          3.4298   -4.2066    5.2646 O.3       1 <0>        -0.2012
     21 C17         2.7523   -3.5218    4.3338 C.2       1 <0>         0.0221
     22 C18         2.1304   -4.2800    3.1895 C.3       1 <0>         0.5339
     23 F1          1.6291   -3.3747    2.2480 F         1 <0>        -0.1258
     24 F2          3.0978   -5.0914    2.5872 F         1 <0>        -0.1567
     25 F3          1.0868   -5.0776    3.6711 F         1 <0>        -0.1594
     26 C19         4.8134   -5.8428    7.1311 C.3       1 <0>         0.0419
     27 N1          3.6820   -6.4838    7.8146 N.4       1 <0>        -0.3778
     28 C20         2.4317   -6.1132    7.1410 C.3       1 <0>        -0.0122
     29 C21         1.2437   -6.7122    7.8969 C.3       1 <0>        -0.1433
     30 C22         1.3787   -8.2374    7.9228 C.3       1 <0>        -0.1389
     31 C23         2.7202   -8.6105    8.5605 C.3       1 <0>        -0.1392
     32 C24         3.8534   -7.9412    7.7800 C.3       1 <0>         0.0253
     33 H1          3.8338   -8.2844    6.7456 H         1 <0>         0.1384
     34 C25         5.1961   -8.3113    8.4134 C.3       1 <0>        -0.1851
     35 O5          5.9664   -4.4289    9.2766 O.3       1 <0>        -0.4793
     36 H2         -1.9726    0.8158    1.5799 H         1 <0>         0.0672
     37 H3         -2.0732    1.1810   -0.1593 H         1 <0>         0.0826
     38 H4         -1.7965   -0.4911    0.3844 H         1 <0>         0.0674
     39 H5          0.3063    0.5388   -0.4318 H         1 <0>         0.0659
     40 H6          0.1302    1.8457    0.7637 H         1 <0>         0.0657
     41 H7          2.0818    1.5317    0.0841 H         1 <0>         0.1442
     42 H8          4.5308    1.6962    0.2649 H         1 <0>         0.1368
     43 H9          5.7417    0.3337    1.9170 H         1 <0>         0.1337
     44 H10         4.5089   -1.1987    3.3966 H         1 <0>         0.1190
     45 H11         4.4478   -0.5071    7.6736 H         1 <0>         0.1652
     46 H12         5.6579   -1.8333    9.3328 H         1 <0>         0.1630
     47 H13         4.7984   -6.1105    6.0745 H         1 <0>         0.1433
     48 H14         5.7476   -6.1819    7.5786 H         1 <0>         0.1570
     49 H15         2.3386   -5.0274    7.1204 H         1 <0>         0.1185
     50 H16         2.4423   -6.4954    6.1202 H         1 <0>         0.1324
     51 H17         1.2320   -6.3304    8.9177 H         1 <0>         0.0872
     52 H18         0.3164   -6.4374    7.3941 H         1 <0>         0.1135
     53 H19         0.5652   -8.6654    8.5085 H         1 <0>         0.0966
     54 H20         1.3391   -8.6242    6.9045 H         1 <0>         0.0836
     55 H21         2.7391   -8.2681    9.5952 H         1 <0>         0.0881
     56 H22         2.8482   -9.6926    8.5321 H         1 <0>         0.1140
     57 H23         5.2171   -7.9672    9.4475 H         1 <0>         0.0820
     58 H24         5.3238   -9.3935    8.3880 H         1 <0>         0.1080
     59 H25         6.0038   -7.8369    7.8561 H         1 <0>         0.0840
     60 H26         5.4178   -4.7372   10.0108 H         1 <0>         0.4064
     61 H27         3.6499   -6.1726    8.7739 H         1 <0>         0.4148
@<TRIPOS>BOND
     1    1    2 1
     2    1   36 1
     3    1   37 1
     4    1   38 1
     5    2    3 1
     6    2   39 1
     7    2   40 1
     8    3    4 1
     9    4    9 ar
    10    4    5 ar
    11    5    6 ar
    12    5   41 1
    13    6    7 ar
    14    6   42 1
    15    7    8 ar
    16    7   43 1
    17    8    9 ar
    18    8   44 1
    19    9   10 1
    20   10   11 1
    21   11   21 2
    22   11   12 1
    23   12   13 2
    24   12   14 1
    25   14   19 ar
    26   14   15 ar
    27   15   16 ar
    28   15   45 1
    29   16   17 ar
    30   16   46 1
    31   17   18 ar
    32   17   35 1
    33   18   19 ar
    34   18   26 1
    35   19   20 1
    36   20   21 1
    37   21   22 1
    38   22   23 1
    39   22   24 1
    40   22   25 1
    41   26   27 1
    42   26   47 1
    43   26   48 1
    44   27   32 1
    45   27   28 1
    46   27   61 1
    47   28   29 1
    48   28   49 1
    49   28   50 1
    50   29   30 1
    51   29   51 1
    52   29   52 1
    53   30   31 1
    54   30   53 1
    55   30   54 1
    56   31   32 1
    57   31   55 1
    58   31   56 1
    59   32   33 1
    60   32   34 1
    61   34   57 1
    62   34   58 1
    63   34   59 1
    64   35   60 1
@<TRIPOS>MOLECULE
ZINC10435954
   61    63     0     0     0
SMALL
USER_CHARGES
N-[[3-bromo-5-ethoxy-4-[(4-fluorophenyl)methoxy]phenyl]methyl]-1-phenyl-butan-1-amine
@<TRIPOS>ATOM
      1 C1         -1.2137    3.6287   -0.0971 C.3       1 <0>        -0.1579
      2 C2         -0.5519    3.1091    1.1807 C.3       1 <0>        -0.1187
      3 C3         -0.6640    1.5839    1.2293 C.3       1 <0>        -0.1390
      4 C4          0.1135    1.0536    2.4356 C.3       1 <0>         0.0824
      5 H1          1.1387    1.4217    2.3975 H         1 <0>         0.1458
      6 C5         -0.5441    1.5288    3.7055 C.ar      1 <0>        -0.1428
      7 C6         -1.6693    0.8842    4.1843 C.ar      1 <0>        -0.1225
      8 C7         -2.2699    1.3175    5.3515 C.ar      1 <0>        -0.1043
      9 C8         -1.7507    2.4010    6.0351 C.ar      1 <0>        -0.0911
     10 C9         -0.6285    3.0488    5.5535 C.ar      1 <0>        -0.1058
     11 C10        -0.0253    2.6129    4.3886 C.ar      1 <0>        -0.0869
     12 C11         1.2388   -0.9217    1.6022 C.3       1 <0>         0.0507
     13 C12         1.2877   -2.4248    1.6993 C.ar      1 <0>        -0.1262
     14 C13         2.0376   -3.0278    2.6923 C.ar      1 <0>        -0.1662
     15 C14         2.0793   -4.4094    2.7868 C.ar      1 <0>         0.1314
     16 C15         1.3745   -5.1880    1.8739 C.ar      1 <0>         0.1287
     17 C16         0.6292   -4.5778    0.8773 C.ar      1 <0>        -0.0816
     18 C17         0.5874   -3.1974    0.7922 C.ar      1 <0>        -0.0909
     19 Br1        -0.3308   -5.6314   -0.3653 Br        1 <0>         0.0028
     20 O1          1.4172   -6.5448    1.9590 O.3       1 <0>        -0.3073
     21 C18         2.4524   -7.2082    1.2307 C.3       1 <0>         0.1137
     22 C19         2.3420   -8.6961    1.4435 C.ar      1 <0>        -0.1124
     23 C20         3.0183   -9.2963    2.4891 C.ar      1 <0>        -0.0610
     24 C21         2.9140  -10.6599    2.6881 C.ar      1 <0>        -0.1571
     25 C22         2.1401  -11.4265    1.8333 C.ar      1 <0>         0.1164
     26 C23         1.4674  -10.8250    0.7832 C.ar      1 <0>        -0.1569
     27 C24         1.5690   -9.4604    0.5894 C.ar      1 <0>        -0.0616
     28 F1          2.0411  -12.7603    2.0240 F         1 <0>        -0.1334
     29 O2          2.8120   -5.0036    3.7664 O.3       1 <0>        -0.2913
     30 C25         3.5096   -4.1418    4.6680 C.3       1 <0>         0.0509
     31 C26         4.2720   -4.9848    5.6922 C.3       1 <0>        -0.1572
     32 H2         -0.7136    3.1997   -0.9655 H         1 <0>         0.0588
     33 H3         -2.2650    3.3412   -0.1046 H         1 <0>         0.0591
     34 H4         -1.1338    4.7152   -0.1317 H         1 <0>         0.0663
     35 H5          0.4995    3.3965    1.1882 H         1 <0>         0.0714
     36 H6         -1.0520    3.5380    2.0491 H         1 <0>         0.0754
     37 H7         -1.7124    1.2994    1.3190 H         1 <0>         0.0903
     38 H8         -0.2494    1.1599    0.3148 H         1 <0>         0.0895
     39 H9         -2.0772    0.0401    3.6482 H         1 <0>         0.1200
     40 H10        -3.1465    0.8111    5.7280 H         1 <0>         0.1351
     41 H11        -2.2215    2.7411    6.9456 H         1 <0>         0.1356
     42 H12        -0.2228    3.8953    6.0876 H         1 <0>         0.1367
     43 H13         0.8514    3.1190    4.0124 H         1 <0>         0.1330
     44 H14         1.0996   -0.6292    0.5614 H         1 <0>         0.1439
     45 H15         2.1734   -0.5029    1.9754 H         1 <0>         0.1418
     46 H16         2.5876   -2.4216    3.3969 H         1 <0>         0.1473
     47 H17         0.0061   -2.7227    0.0156 H         1 <0>         0.1484
     48 H18         2.3503   -6.9845    0.1688 H         1 <0>         0.0698
     49 H19         3.4239   -6.8619    1.5832 H         1 <0>         0.0704
     50 H20         3.6252   -8.6988    3.1533 H         1 <0>         0.1349
     51 H21         3.4391  -11.1280    3.5075 H         1 <0>         0.1408
     52 H22         0.8632  -11.4219    0.1161 H         1 <0>         0.1410
     53 H23         1.0441   -8.9910   -0.2295 H         1 <0>         0.1340
     54 H24         4.2132   -3.5246    4.1095 H         1 <0>         0.0669
     55 H25         2.7948   -3.5012    5.1846 H         1 <0>         0.0649
     56 H26         4.8041   -4.3275    6.3799 H         1 <0>         0.0857
     57 H27         3.5683   -5.6020    6.2508 H         1 <0>         0.0721
     58 H28         4.9867   -5.6254    5.1757 H         1 <0>         0.0715
     59 N1          0.1121   -0.4214    2.4121 N.4       1 <0>        -0.5192
     60 H29        -0.7706   -0.7528    2.0057 H         1 <0>         0.4310
     61 H30         0.2013   -0.7755    3.3717 H         1 <0>         0.4330
@<TRIPOS>BOND
     1    1    2 1
     2    1   32 1
     3    1   33 1
     4    1   34 1
     5    2    3 1
     6    2   35 1
     7    2   36 1
     8    3    4 1
     9    3   37 1
    10    3   38 1
    11    4    5 1
    12    4    6 1
    13    4   59 1
    14    6   11 ar
    15    6    7 ar
    16    7    8 ar
    17    7   39 1
    18    8    9 ar
    19    8   40 1
    20    9   10 ar
    21    9   41 1
    22   10   11 ar
    23   10   42 1
    24   11   43 1
    25   12   13 1
    26   12   44 1
    27   12   45 1
    28   12   59 1
    29   13   18 ar
    30   13   14 ar
    31   14   15 ar
    32   14   46 1
    33   15   16 ar
    34   15   29 1
    35   16   17 ar
    36   16   20 1
    37   17   18 ar
    38   17   19 1
    39   18   47 1
    40   20   21 1
    41   21   22 1
    42   21   48 1
    43   21   49 1
    44   22   27 ar
    45   22   23 ar
    46   23   24 ar
    47   23   50 1
    48   24   25 ar
    49   24   51 1
    50   25   26 ar
    51   25   28 1
    52   26   27 ar
    53   26   52 1
    54   27   53 1
    55   29   30 1
    56   30   31 1
    57   30   54 1
    58   30   55 1
    59   31   56 1
    60   31   57 1
    61   31   58 1
    62   59   60 1
    63   59   61 1
@<TRIPOS>MOLECULE
ZINC13725342
   58    60     0     0     0
SMALL
USER_CHARGES
(2R)-N-[[4-[(2,4-dichlorophenyl)methoxy]-3-methoxy-phenyl]methyl]-4-phenyl-butan-2-amine
@<TRIPOS>ATOM
      1 C1         -2.6977   -3.2640   -1.3009 C.3       1 <0>        -0.1821
      2 C2         -2.9913   -1.7659   -1.4020 C.3       1 <0>         0.0282
      3 H1         -3.6156   -1.4605   -0.5623 H         1 <0>         0.1406
      4 C3         -3.7240   -1.4772   -2.7137 C.3       1 <0>        -0.1437
      5 C4         -4.1277   -0.0020   -2.7584 C.3       1 <0>        -0.0876
      6 C5         -4.8494    0.2823   -4.0504 C.ar      1 <0>        -0.1022
      7 C6         -4.1385    0.6877   -5.1645 C.ar      1 <0>        -0.1179
      8 C7         -4.7999    0.9434   -6.3511 C.ar      1 <0>        -0.1146
      9 C8         -6.1735    0.8044   -6.4207 C.ar      1 <0>        -0.1110
     10 C9         -6.8851    0.4045   -5.3050 C.ar      1 <0>        -0.1131
     11 C10        -6.2230    0.1433   -4.1200 C.ar      1 <0>        -0.1126
     12 C11        -1.2936   -0.7736    0.0108 C.3       1 <0>         0.0538
     13 C12         0.0021   -0.0041    0.0020 C.ar      1 <0>        -0.1673
     14 C13         1.2069   -0.6820   -0.0131 C.ar      1 <0>        -0.0817
     15 C14         2.3981    0.0193   -0.0203 C.ar      1 <0>        -0.1747
     16 C15         2.3864    1.4049   -0.0127 C.ar      1 <0>         0.1430
     17 C16         1.1738    2.0873    0.0021 C.ar      1 <0>         0.1102
     18 C17        -0.0167    1.3782    0.0096 C.ar      1 <0>        -0.1536
     19 O1          1.1571    3.4471    0.0091 O.3       1 <0>        -0.2970
     20 C18        -0.1240    4.0801    0.0242 C.3       1 <0>         0.0225
     21 O2          3.5574    2.0963   -0.0202 O.3       1 <0>        -0.2906
     22 C19         4.7634    1.3298   -0.0358 C.3       1 <0>         0.1006
     23 C20         5.9494    2.2594   -0.0422 C.ar      1 <0>        -0.0881
     24 C21         5.7548    3.6281   -0.0329 C.ar      1 <0>        -0.0715
     25 C22         6.8420    4.4812   -0.0383 C.ar      1 <0>        -0.1020
     26 C23         8.1262    3.9659   -0.0529 C.ar      1 <0>        -0.0190
     27 C24         8.3216    2.5967   -0.0621 C.ar      1 <0>        -0.0983
     28 C25         7.2328    1.7430   -0.0514 C.ar      1 <0>        -0.0179
     29 Cl1         7.4770    0.0243   -0.0563 Cl        1 <0>        -0.0507
     30 Cl2         9.4918    5.0377   -0.0601 Cl        1 <0>        -0.0447
     31 H2         -3.6348   -3.8203   -1.3236 H         1 <0>         0.1066
     32 H3         -2.0734   -3.5694   -2.1406 H         1 <0>         0.0824
     33 H4         -2.1757   -3.4697   -0.3663 H         1 <0>         0.0818
     34 H5         -3.0662   -1.6994   -3.5539 H         1 <0>         0.0911
     35 H6         -4.6163   -2.1001   -2.7762 H         1 <0>         0.1151
     36 H7         -4.7856    0.2202   -1.9182 H         1 <0>         0.0878
     37 H8         -3.2355    0.6209   -2.6959 H         1 <0>         0.0638
     38 H9         -3.0658    0.8006   -5.1090 H         1 <0>         0.1185
     39 H10        -4.2439    1.2555   -7.2229 H         1 <0>         0.1265
     40 H11        -6.6906    1.0078   -7.3467 H         1 <0>         0.1276
     41 H12        -7.9582    0.2959   -5.3593 H         1 <0>         0.1276
     42 H13        -6.7790   -0.1691   -3.2483 H         1 <0>         0.1232
     43 H14        -1.1465   -1.7271    0.5180 H         1 <0>         0.1385
     44 H15        -2.0553   -0.1967    0.5353 H         1 <0>         0.1357
     45 H16         1.2174   -1.7620   -0.0190 H         1 <0>         0.1375
     46 H17         3.3379   -0.5127   -0.0321 H         1 <0>         0.1482
     47 H18        -0.9592    1.9054    0.0170 H         1 <0>         0.1433
     48 H19        -0.6856    3.7849   -0.8620 H         1 <0>         0.0562
     49 H20        -0.6690    3.7759    0.9178 H         1 <0>         0.0594
     50 H21         0.0056    5.1624    0.0285 H         1 <0>         0.1108
     51 H22         4.8028    0.6965    0.8504 H         1 <0>         0.0885
     52 H23         4.7858    0.7060   -0.9294 H         1 <0>         0.0878
     53 H24         4.7528    4.0307   -0.0212 H         1 <0>         0.1524
     54 H25         6.6894    5.5503   -0.0307 H         1 <0>         0.1460
     55 H26         9.3236    2.1940   -0.0731 H         1 <0>         0.1511
     56 N1         -1.7231   -1.0129   -1.3800 N.4       1 <0>        -0.5209
     57 H27        -1.8561   -0.1115   -1.8533 H         1 <0>         0.4263
     58 H28        -1.0000   -1.5530   -1.8696 H         1 <0>         0.4299
@<TRIPOS>BOND
     1    1    2 1
     2    1   31 1
     3    1   32 1
     4    1   33 1
     5    2    3 1
     6    2    4 1
     7    2   56 1
     8    4    5 1
     9    4   34 1
    10    4   35 1
    11    5    6 1
    12    5   36 1
    13    5   37 1
    14    6   11 ar
    15    6    7 ar
    16    7    8 ar
    17    7   38 1
    18    8    9 ar
    19    8   39 1
    20    9   10 ar
    21    9   40 1
    22   10   11 ar
    23   10   41 1
    24   11   42 1
    25   12   13 1
    26   12   43 1
    27   12   44 1
    28   12   56 1
    29   13   18 ar
    30   13   14 ar
    31   14   15 ar
    32   14   45 1
    33   15   16 ar
    34   15   46 1
    35   16   17 ar
    36   16   21 1
    37   17   18 ar
    38   17   19 1
    39   18   47 1
    40   19   20 1
    41   20   48 1
    42   20   49 1
    43   20   50 1
    44   21   22 1
    45   22   23 1
    46   22   51 1
    47   22   52 1
    48   23   28 ar
    49   23   24 ar
    50   24   25 ar
    51   24   53 1
    52   25   26 ar
    53   25   54 1
    54   26   27 ar
    55   26   30 1
    56   27   28 ar
    57   27   55 1
    58   28   29 1
    59   56   57 1
    60   56   58 1
@<TRIPOS>MOLECULE
ZINC09240893
   71    73     0     0     0
SMALL
USER_CHARGES
(4E,5R)-5-(3,4-dichlorophenyl)-1-(2-diethylaminoethyl)-4-[hydroxy-(4-isobutoxy-3-methyl-phenyl)methylene]pyrrolidine-2,3-dione
@<TRIPOS>ATOM
      1 C1          6.7179   -8.8619    1.0690 C.3       1 <0>        -0.1867
      2 C2          5.8041   -9.6307    0.1126 C.3       1 <0>        -0.0142
      3 C3          4.5419  -10.5050    1.9847 C.3       1 <0>        -0.0112
      4 C4          4.8427  -11.9789    1.7052 C.3       1 <0>        -0.1874
      5 C5          3.8375   -8.4581    0.9000 C.3       1 <0>        -0.0346
      6 C6          3.5556   -7.8302   -0.4664 C.3       1 <0>         0.1081
      7 N1          2.9234   -6.5216   -0.2815 N.am      1 <0>        -0.5990
      8 C7          1.4812   -6.2788   -0.1843 C.3       1 <0>         0.2489
      9 H1          1.0678   -6.8105    0.6727 H         1 <0>         0.1049
     10 C8          1.3046   -4.7889   -0.0032 C.2       1 <0>        -0.3582
     11 C9          0.1119   -4.1047    0.1308 C.2       1 <0>         0.3357
     12 C10         0.1080   -2.6344    0.1722 C.ar      1 <0>        -0.1948
     13 C11         0.8267   -1.9028   -0.7814 C.ar      1 <0>         0.0076
     14 C12         0.8203   -0.5276   -0.7381 C.ar      1 <0>        -0.2123
     15 C13         0.1015    0.1361    0.2508 C.ar      1 <0>         0.1776
     16 C14        -0.6094   -0.5858    1.2032 C.ar      1 <0>        -0.1221
     17 C15        -0.6137   -1.9616    1.1654 C.ar      1 <0>        -0.0454
     18 C16        -1.3808    0.1397    2.2755 C.3       1 <0>        -0.1088
     19 O1          0.0987    1.4924    0.2895 O.3       1 <0>        -0.2999
     20 C17         0.8547    2.1717   -0.7151 C.3       1 <0>         0.0585
     21 C18         0.7323    3.6831   -0.5108 C.3       1 <0>        -0.0944
     22 C19         1.6395    4.4075   -1.5072 C.3       1 <0>        -0.1486
     23 C20        -0.7187    4.1124   -0.7366 C.3       1 <0>        -0.1492
     24 O2         -1.0503   -4.7857    0.2238 O.3       1 <0>        -0.4322
     25 C21         2.5959   -4.2413    0.0076 C.2       1 <0>         0.3880
     26 O3          2.8706   -3.0620    0.1381 O.2       1 <0>        -0.3965
     27 C22         3.5720   -5.3504   -0.1680 C.2       1 <0>         0.4870
     28 O4          4.7781   -5.2167   -0.2035 O.2       1 <0>        -0.4764
     29 C23         0.7985   -6.7292   -1.4501 C.ar      1 <0>        -0.0940
     30 C24         1.4039   -6.5165   -2.6749 C.ar      1 <0>        -0.0877
     31 C25         0.7812   -6.9335   -3.8361 C.ar      1 <0>        -0.0964
     32 C26        -0.4535   -7.5545   -3.7742 C.ar      1 <0>        -0.0250
     33 C27        -1.0621   -7.7627   -2.5483 C.ar      1 <0>        -0.0316
     34 C28        -0.4349   -7.3495   -1.3865 C.ar      1 <0>        -0.0739
     35 Cl1        -2.6111   -8.5424   -2.4689 Cl        1 <0>        -0.0352
     36 Cl2        -1.2394   -8.0720   -5.2331 Cl        1 <0>        -0.0347
     37 H2          6.2470   -7.9172    1.3408 H         1 <0>         0.0811
     38 H3          6.8856   -9.4559    1.9674 H         1 <0>         0.0809
     39 H4          7.6721   -8.6649    0.5803 H         1 <0>         0.1072
     40 H5          6.2234  -10.6192   -0.0748 H         1 <0>         0.1323
     41 H6          5.7225   -9.0863   -0.8283 H         1 <0>         0.1286
     42 H7          5.3333  -10.0839    2.6047 H         1 <0>         0.1339
     43 H8          3.5884  -10.4214    2.5062 H         1 <0>         0.1288
     44 H9          4.7942  -12.5426    2.6369 H         1 <0>         0.1065
     45 H10         4.1078  -12.3730    1.0034 H         1 <0>         0.0800
     46 H11         5.8406  -12.0710    1.2763 H         1 <0>         0.0806
     47 H12         4.5047   -7.8091    1.4674 H         1 <0>         0.1389
     48 H13         2.9008   -8.5807    1.4438 H         1 <0>         0.1349
     49 H14         2.8885   -8.4791   -1.0338 H         1 <0>         0.1074
     50 H15         4.4923   -7.7076   -1.0101 H         1 <0>         0.1092
     51 H16         1.3853   -2.4172   -1.5494 H         1 <0>         0.1265
     52 H17         1.3745    0.0375   -1.4729 H         1 <0>         0.1379
     53 H18        -1.1698   -2.5212    1.9029 H         1 <0>         0.1378
     54 H19        -2.3959    0.3302    1.9269 H         1 <0>         0.0736
     55 H20        -1.4150   -0.4732    3.1762 H         1 <0>         0.0683
     56 H21        -0.8896    1.0867    2.4988 H         1 <0>         0.0752
     57 H22         1.9020    1.8788   -0.6419 H         1 <0>         0.0675
     58 H23         0.4711    1.9060   -1.7002 H         1 <0>         0.0676
     59 H24         1.0326    3.9377    0.5056 H         1 <0>         0.0834
     60 H25         1.3392    4.1528   -2.5236 H         1 <0>         0.0591
     61 H26         1.5523    5.4843   -1.3617 H         1 <0>         0.0688
     62 H27         2.6733    4.1017   -1.3464 H         1 <0>         0.0589
     63 H28        -1.0190    3.8577   -1.7530 H         1 <0>         0.0549
     64 H29        -1.3651    3.5963   -0.0267 H         1 <0>         0.0618
     65 H30        -0.8059    5.1891   -0.5910 H         1 <0>         0.0607
     66 H31        -1.8085   -4.1401    0.3149 H         1 <0>         0.4211
     67 H32         2.3657   -6.0277   -2.7238 H         1 <0>         0.1318
     68 H33         1.2565   -6.7707   -4.7921 H         1 <0>         0.1461
     69 H34        -0.9089   -7.5119   -0.4298 H         1 <0>         0.1469
     70 N2          4.4551   -9.7854    0.6966 N.4       1 <0>        -0.3922
     71 H35         3.8719  -10.3290    0.0496 H         1 <0>         0.4283
@<TRIPOS>BOND
     1    1    2 1
     2    1   37 1
     3    1   38 1
     4    1   39 1
     5    2   40 1
     6    2   41 1
     7    2   70 1
     8    3    4 1
     9    3   42 1
    10    3   43 1
    11    3   70 1
    12    4   44 1
    13    4   45 1
    14    4   46 1
    15    5    6 1
    16    5   47 1
    17    5   48 1
    18    5   70 1
    19    6    7 1
    20    6   49 1
    21    6   50 1
    22    7   27 am
    23    7    8 1
    24    8    9 1
    25    8   10 1
    26    8   29 1
    27   10   11 2
    28   10   25 1
    29   11   12 1
    30   11   24 1
    31   12   17 ar
    32   12   13 ar
    33   13   14 ar
    34   13   51 1
    35   14   15 ar
    36   14   52 1
    37   15   16 ar
    38   15   19 1
    39   16   17 ar
    40   16   18 1
    41   17   53 1
    42   18   54 1
    43   18   55 1
    44   18   56 1
    45   19   20 1
    46   20   21 1
    47   20   57 1
    48   20   58 1
    49   21   22 1
    50   21   23 1
    51   21   59 1
    52   22   60 1
    53   22   61 1
    54   22   62 1
    55   23   63 1
    56   23   64 1
    57   23   65 1
    58   24   66 1
    59   25   26 2
    60   25   27 1
    61   27   28 2
    62   29   34 ar
    63   29   30 ar
    64   30   31 ar
    65   30   67 1
    66   31   32 ar
    67   31   68 1
    68   32   33 ar
    69   32   36 1
    70   33   34 ar
    71   33   35 1
    72   34   69 1
    73   70   71 1
@<TRIPOS>MOLECULE
ZINC35499203
   72    75     0     0     0
SMALL
USER_CHARGES

@<TRIPOS>ATOM
      1 C1         -0.2249    1.9563    7.3981 C.ar      1 <0>        -0.1063
      2 C2          0.9636    2.6158    7.1463 C.ar      1 <0>        -0.1218
      3 C3          1.8852    2.0701    6.2724 C.ar      1 <0>        -0.0986
      4 C4          1.6186    0.8645    5.6508 C.ar      1 <0>        -0.1022
      5 C5          0.4305    0.2045    5.9033 C.ar      1 <0>        -0.0962
      6 C6         -0.4917    0.7510    6.7761 C.ar      1 <0>        -0.1211
      7 C7          2.6229    0.2700    4.6974 C.3       1 <0>         0.1064
      8 O1          3.5226   -0.5740    5.4185 O.3       1 <0>        -0.3662
      9 C8          4.5208   -1.1909    4.6029 C.3       1 <0>         0.0316
     10 C9          5.4226   -2.0665    5.4753 C.3       1 <0>         0.0885
     11 H1          5.8344   -1.4677    6.2878 H         1 <0>         0.1245
     12 C10         6.5647   -2.6276    4.6259 C.3       1 <0>        -0.0535
     13 N1          7.5264   -3.3199    5.4942 N.4       1 <0>        -0.3897
     14 C11         8.7730   -3.5559    4.7538 C.3       1 <0>         0.0691
     15 C12         9.8155   -4.1114    5.6895 C.2       1 <0>        -0.0724
     16 C13        10.0747   -5.4182    5.8982 C.2       1 <0>        -0.1264
     17 C14        11.1167   -5.4959    6.8433 C.2       1 <0>        -0.1941
     18 C15        11.4546   -4.2335    7.1761 C.2       1 <0>         0.0365
     19 N2         10.6634   -3.3793    6.4668 N.pl3     1 <0>        -0.4331
     20 C16        10.7133   -1.9166    6.5319 C.3       1 <0>         0.1319
     21 C17         9.7624   -1.4283    7.5941 C.ar      1 <0>        -0.0861
     22 C18         8.5280   -0.9189    7.2354 C.ar      1 <0>        -0.1673
     23 C19         7.6548   -0.4707    8.2086 C.ar      1 <0>        -0.0775
     24 C20         8.0148   -0.5309    9.5417 C.ar      1 <0>        -0.1363
     25 C21         9.2504   -1.0407    9.9021 C.ar      1 <0>         0.1285
     26 C22        10.1221   -1.4951    8.9266 C.ar      1 <0>        -0.1300
     27 F1          9.6036   -1.0996   11.2048 F         1 <0>        -0.1238
     28 C23         6.9609   -4.6059    5.9236 C.3       1 <0>        -0.0273
     29 C24         7.4768   -4.9480    7.3228 C.3       1 <0>        -0.1208
     30 C25         6.9217   -3.9404    8.3315 C.3       1 <0>        -0.1232
     31 C26         7.4375   -4.2825    9.7307 C.3       1 <0>        -0.1139
     32 C27         6.9796   -5.6915   10.1127 C.3       1 <0>        -0.1233
     33 C28         7.5346   -6.6992    9.1040 C.3       1 <0>        -0.1184
     34 C29         7.0188   -6.3570    7.7048 C.3       1 <0>        -0.1046
     35 O2          4.6585   -3.1450    6.0183 O.3       1 <0>        -0.5305
     36 H2         -0.9430    2.3805    8.0843 H         1 <0>         0.1268
     37 H3          1.1719    3.5577    7.6319 H         1 <0>         0.1265
     38 H4          2.8135    2.5857    6.0751 H         1 <0>         0.1215
     39 H5          0.2220   -0.7372    5.4174 H         1 <0>         0.1224
     40 H6         -1.4201    0.2356    6.9731 H         1 <0>         0.1270
     41 H7          2.1022   -0.3166    3.9404 H         1 <0>         0.0632
     42 H8          3.1836    1.0704    4.2146 H         1 <0>         0.0625
     43 H9          4.0395   -1.8079    3.8441 H         1 <0>         0.0673
     44 H10         5.1208   -0.4209    4.1182 H         1 <0>         0.0689
     45 H11         6.1632   -3.3303    3.8957 H         1 <0>         0.1441
     46 H12         7.0664   -1.8111    4.1065 H         1 <0>         0.1406
     47 H13         8.5889   -4.2691    3.9503 H         1 <0>         0.1506
     48 H14         9.1281   -2.6160    4.3311 H         1 <0>         0.1273
     49 H15         9.5750   -6.2521    5.4276 H         1 <0>         0.1463
     50 H16        11.5626   -6.4002    7.2303 H         1 <0>         0.1503
     51 H17        12.2225   -3.9484    7.8800 H         1 <0>         0.1742
     52 H18        11.7265   -1.5982    6.7771 H         1 <0>         0.1202
     53 H19        10.4251   -1.4999    5.5668 H         1 <0>         0.1025
     54 H20         8.2461   -0.8709    6.1939 H         1 <0>         0.1158
     55 H21         6.6909   -0.0730    7.9272 H         1 <0>         0.1431
     56 H22         7.3327   -0.1800   10.3019 H         1 <0>         0.1482
     57 H23        11.0845   -1.8971    9.2068 H         1 <0>         0.1432
     58 H24         5.8734   -4.5358    5.9444 H         1 <0>         0.1516
     59 H25         7.2614   -5.3864    5.2246 H         1 <0>         0.1249
     60 H26         8.5659   -4.9058    7.3289 H         1 <0>         0.1109
     61 H27         7.2480   -2.9366    8.0594 H         1 <0>         0.0466
     62 H28         5.8326   -3.9825    8.3254 H         1 <0>         0.0822
     63 H29         8.5267   -4.2403    9.7368 H         1 <0>         0.0597
     64 H30         7.0421   -3.5647   10.4493 H         1 <0>         0.0651
     65 H31         7.3471   -5.9353   11.1095 H         1 <0>         0.0673
     66 H32         5.8904   -5.7337   10.1066 H         1 <0>         0.0656
     67 H33         8.6238   -6.6570    9.1100 H         1 <0>         0.0656
     68 H34         7.2084   -7.7030    9.3761 H         1 <0>         0.0707
     69 H35         5.9296   -6.3992    7.6987 H         1 <0>         0.0703
     70 H36         7.4142   -7.0749    6.9861 H         1 <0>         0.0695
     71 H37         4.2612   -3.7208    5.3507 H         1 <0>         0.3879
     72 H38         7.7191   -2.7499    6.3042 H         1 <0>         0.4173
@<TRIPOS>BOND
     1    1    6 ar
     2    1    2 ar
     3    1   36 1
     4    2    3 ar
     5    2   37 1
     6    3    4 ar
     7    3   38 1
     8    4    5 ar
     9    4    7 1
    10    5    6 ar
    11    5   39 1
    12    6   40 1
    13    7    8 1
    14    7   41 1
    15    7   42 1
    16    8    9 1
    17    9   10 1
    18    9   43 1
    19    9   44 1
    20   10   11 1
    21   10   12 1
    22   10   35 1
    23   12   13 1
    24   12   45 1
    25   12   46 1
    26   13   14 1
    27   13   28 1
    28   13   72 1
    29   14   15 1
    30   14   47 1
    31   14   48 1
    32   15   19 1
    33   15   16 2
    34   16   17 1
    35   16   49 1
    36   17   18 2
    37   17   50 1
    38   18   19 1
    39   18   51 1
    40   19   20 1
    41   20   21 1
    42   20   52 1
    43   20   53 1
    44   21   26 ar
    45   21   22 ar
    46   22   23 ar
    47   22   54 1
    48   23   24 ar
    49   23   55 1
    50   24   25 ar
    51   24   56 1
    52   25   26 ar
    53   25   27 1
    54   26   57 1
    55   28   29 1
    56   28   58 1
    57   28   59 1
    58   29   34 1
    59   29   30 1
    60   29   60 1
    61   30   31 1
    62   30   61 1
    63   30   62 1
    64   31   32 1
    65   31   63 1
    66   31   64 1
    67   32   33 1
    68   32   65 1
    69   32   66 1
    70   33   34 1
    71   33   67 1
    72   33   68 1
    73   34   69 1
    74   34   70 1
    75   35   71 1
@<TRIPOS>MOLECULE
ZINC40742169
   49    51     0     0     0
SMALL
USER_CHARGES

@<TRIPOS>ATOM
      1 C1         -0.0187    1.5258    0.0104 C.3       1 <0>        -0.1579
      2 C2          0.0021   -0.0041    0.0020 C.3       1 <0>         0.0510
      3 O1         -1.3386   -0.4987    0.0122 O.3       1 <0>        -0.2910
      4 C3         -1.4984   -1.8492    0.0064 C.ar      1 <0>         0.1378
      5 C4         -0.3889   -2.6797   -0.0029 C.ar      1 <0>        -0.1754
      6 C5         -0.5525   -4.0523   -0.0088 C.ar      1 <0>        -0.1192
      7 C6         -1.8218   -4.6004   -0.0058 C.ar      1 <0>        -0.1108
      8 C7         -2.9336   -3.7774    0.0030 C.ar      1 <0>        -0.0224
      9 C8         -2.7758   -2.3998    0.0157 C.ar      1 <0>         0.1084
     10 O2         -3.8677   -1.5887    0.0309 O.3       1 <0>        -0.3060
     11 C9         -4.4008   -1.1946   -1.2350 C.3       1 <0>         0.1119
     12 C10        -5.5981   -0.3049   -1.0209 C.ar      1 <0>        -0.0847
     13 C11        -6.8605   -0.8588   -0.9156 C.ar      1 <0>        -0.0757
     14 C12        -7.9594   -0.0439   -0.7197 C.ar      1 <0>        -0.1003
     15 C13        -7.7966    1.3269   -0.6283 C.ar      1 <0>        -0.0191
     16 C14        -6.5324    1.8815   -0.7332 C.ar      1 <0>        -0.0359
     17 C15        -5.4329    1.0639   -0.9242 C.ar      1 <0>        -0.0708
     18 Cl1        -6.3264    3.6015   -0.6193 Cl        1 <0>        -0.0385
     19 Cl2        -9.1766    2.3510   -0.3827 Cl        1 <0>        -0.0364
     20 Cl3        -4.5259   -4.4691    0.0062 Cl        1 <0>        -0.0185
     21 C16         0.6554   -4.9533   -0.0189 C.3       1 <0>         0.0470
     22 N1          1.0545   -5.2528    1.3628 N.4       1 <0>        -0.5116
     23 C17         2.2320   -6.1311    1.3529 C.3       1 <0>         0.0998
     24 C18         2.6414   -6.4383    2.7703 C.2       1 <0>        -0.2785
     25 C19         2.2480   -7.4594    3.5702 C.2       1 <0>        -0.0764
     26 C20         2.7613   -7.5438    4.8508 C.2       1 <0>        -0.1820
     27 C21         3.6429   -6.6029    5.2690 C.2       1 <0>        -0.1145
     28 S1          3.7765   -5.5562    3.8289 S.3       1 <0>         0.0905
     29 H1          1.0039    1.9031    0.0027 H         1 <0>         0.0861
     30 H2         -0.5459    1.8868   -0.8726 H         1 <0>         0.0717
     31 H3         -0.5289    1.8773    0.9072 H         1 <0>         0.0723
     32 H4          0.5123   -0.3556   -0.8948 H         1 <0>         0.0676
     33 H5          0.5293   -0.3651    0.8851 H         1 <0>         0.0655
     34 H6          0.6038   -2.2544   -0.0059 H         1 <0>         0.1479
     35 H7         -1.9455   -5.6733   -0.0108 H         1 <0>         0.1500
     36 H8         -3.6403   -0.6516   -1.7963 H         1 <0>         0.0735
     37 H9         -4.7018   -2.0805   -1.7942 H         1 <0>         0.0733
     38 H10        -6.9880   -1.9289   -0.9869 H         1 <0>         0.1402
     39 H11        -8.9453   -0.4772   -0.6382 H         1 <0>         0.1488
     40 H12        -4.4460    1.4955   -1.0021 H         1 <0>         0.1447
     41 H13         0.4120   -5.8814   -0.5361 H         1 <0>         0.1469
     42 H14         1.4763   -4.4547   -0.5343 H         1 <0>         0.1443
     43 H15         1.2798   -4.3936    1.8415 H         1 <0>         0.4281
     44 H16         1.9886   -7.0592    0.8357 H         1 <0>         0.1505
     45 H17         3.0529   -5.6325    0.8375 H         1 <0>         0.1438
     46 H18         1.5437   -8.1959    3.2123 H         1 <0>         0.1438
     47 H19         2.4640   -8.3472    5.5086 H         1 <0>         0.1501
     48 H20         4.1388   -6.5123    6.2241 H         1 <0>         0.2000
     49 H21         0.2946   -5.7144    1.8398 H         1 <0>         0.4304
@<TRIPOS>BOND
     1    1    2 1
     2    1   29 1
     3    1   30 1
     4    1   31 1
     5    2    3 1
     6    2   32 1
     7    2   33 1
     8    3    4 1
     9    4    9 ar
    10    4    5 ar
    11    5    6 ar
    12    5   34 1
    13    6    7 ar
    14    6   21 1
    15    7    8 ar
    16    7   35 1
    17    8    9 ar
    18    8   20 1
    19    9   10 1
    20   10   11 1
    21   11   12 1
    22   11   36 1
    23   11   37 1
    24   12   17 ar
    25   12   13 ar
    26   13   14 ar
    27   13   38 1
    28   14   15 ar
    29   14   39 1
    30   15   16 ar
    31   15   19 1
    32   16   17 ar
    33   16   18 1
    34   17   40 1
    35   21   22 1
    36   21   41 1
    37   21   42 1
    38   22   23 1
    39   22   43 1
    40   22   49 1
    41   23   24 1
    42   23   44 1
    43   23   45 1
    44   24   28 1
    45   24   25 2
    46   25   26 1
    47   25   46 1
    48   26   27 2
    49   26   47 1
    50   27   28 1
    51   27   48 1
@<TRIPOS>MOLECULE
ZINC08900931
   54    57     0     0     0
SMALL
USER_CHARGES
3-[5-(3,5-dichlorophenyl)-2-furyl]-N-[4-(2-phenylacetyl)aminophenyl]-prop-2-enamide
@<TRIPOS>ATOM
      1 C1        -11.6799   -6.0560   -3.6856 C.ar      1 <0>        -0.1176
      2 C2        -10.7065   -6.8444   -4.2703 C.ar      1 <0>        -0.1185
      3 C3         -9.7655   -7.4793   -3.4816 C.ar      1 <0>        -0.1043
      4 C4         -9.7981   -7.3263   -2.1081 C.ar      1 <0>        -0.0723
      5 C5        -10.7750   -6.5426   -1.5230 C.ar      1 <0>        -0.1051
      6 C6        -11.7126   -5.9030   -2.3122 C.ar      1 <0>        -0.1189
      7 C7         -8.7725   -8.0189   -1.2482 C.3       1 <0>        -0.1000
      8 C8         -7.5778   -7.1183   -1.0673 C.2       1 <0>         0.5133
      9 O1         -7.5609   -6.0218   -1.5857 O.2       1 <0>        -0.5081
     10 N1         -6.5282   -7.5311   -0.3295 N.am      1 <0>        -0.6752
     11 C9         -5.3785   -6.7357   -0.2406 C.ar      1 <0>         0.1293
     12 C10        -4.1263   -7.3314   -0.1644 C.ar      1 <0>        -0.1260
     13 C11        -2.9934   -6.5477   -0.0767 C.ar      1 <0>        -0.1001
     14 C12        -3.1057   -5.1633   -0.0652 C.ar      1 <0>         0.1289
     15 C13        -4.3586   -4.5677   -0.1366 C.ar      1 <0>        -0.1252
     16 C14        -5.4910   -5.3516   -0.2291 C.ar      1 <0>        -0.1010
     17 N2         -1.9571   -4.3686    0.0242 N.am      1 <0>        -0.6678
     18 C15        -0.8167   -4.7626   -0.5764 C.2       1 <0>         0.5518
     19 O2         -0.7611   -5.8486   -1.1253 O.2       1 <0>        -0.5268
     20 C16         0.3156   -3.9151   -0.5693 C.2       1 <0>        -0.2134
     21 C17         1.4646   -4.3121   -1.1744 C.2       1 <0>         0.0231
     22 C18         2.5964   -3.4649   -1.1673 C.2       1 <0>        -0.0019
     23 C19         3.8227   -3.7427   -1.7421 C.2       1 <0>        -0.1486
     24 C20         4.6415   -2.6372   -1.4980 C.2       1 <0>        -0.1811
     25 C21         3.8982   -1.7337   -0.7921 C.2       1 <0>         0.0456
     26 O3          2.6688   -2.2428   -0.5989 O.3       1 <0>        -0.1556
     27 C22         4.3672   -0.4160   -0.3203 C.ar      1 <0>         0.0059
     28 C23         5.6755   -0.0022   -0.5818 C.ar      1 <0>        -0.0838
     29 C24         6.1060    1.2337   -0.1427 C.ar      1 <0>        -0.0192
     30 C25         5.2477    2.0579    0.5655 C.ar      1 <0>        -0.0940
     31 C26         3.9513    1.6512    0.8331 C.ar      1 <0>        -0.0199
     32 C27         3.5065    0.4201    0.3947 C.ar      1 <0>        -0.0886
     33 Cl1         2.8833    2.6917    1.7223 Cl        1 <0>        -0.0452
     34 Cl2         7.7295    1.7527   -0.4724 Cl        1 <0>        -0.0432
     35 H1        -12.4147   -5.5594   -4.3019 H         1 <0>         0.1220
     36 H2        -10.6810   -6.9639   -5.3434 H         1 <0>         0.1226
     37 H3         -9.0049   -8.0953   -3.9383 H         1 <0>         0.1196
     38 H4        -10.8032   -6.4266   -0.4496 H         1 <0>         0.1197
     39 H5        -12.4729   -5.2868   -1.8554 H         1 <0>         0.1226
     40 H6         -8.4596   -8.9450   -1.7304 H         1 <0>         0.1073
     41 H7         -9.2076   -8.2452   -0.2747 H         1 <0>         0.1071
     42 H8         -6.5689   -8.3790    0.1398 H         1 <0>         0.4115
     43 H9         -4.0390   -8.4078   -0.1733 H         1 <0>         0.1295
     44 H10        -2.0196   -7.0110   -0.0174 H         1 <0>         0.1440
     45 H11        -4.4464   -3.4914   -0.1232 H         1 <0>         0.1291
     46 H12        -6.4649   -4.8885   -0.2884 H         1 <0>         0.1428
     47 H13        -1.9818   -3.5343    0.5183 H         1 <0>         0.4125
     48 H14         0.2663   -2.9522   -0.0827 H         1 <0>         0.1339
     49 H15         1.5138   -5.2749   -1.6611 H         1 <0>         0.1661
     50 H16         4.0963   -4.6425   -2.2732 H         1 <0>         0.1652
     51 H17         5.6691   -2.5191   -1.8086 H         1 <0>         0.1612
     52 H18         6.3473   -0.6460   -1.1302 H         1 <0>         0.1488
     53 H19         5.5909    3.0218    0.9110 H         1 <0>         0.1506
     54 H20         2.4953    0.1040    0.6043 H         1 <0>         0.1470
@<TRIPOS>BOND
     1    1    6 ar
     2    1    2 ar
     3    1   35 1
     4    2    3 ar
     5    2   36 1
     6    3    4 ar
     7    3   37 1
     8    4    5 ar
     9    4    7 1
    10    5    6 ar
    11    5   38 1
    12    6   39 1
    13    7    8 1
    14    7   40 1
    15    7   41 1
    16    8    9 2
    17    8   10 am
    18   10   11 1
    19   10   42 1
    20   11   16 ar
    21   11   12 ar
    22   12   13 ar
    23   12   43 1
    24   13   14 ar
    25   13   44 1
    26   14   15 ar
    27   14   17 1
    28   15   16 ar
    29   15   45 1
    30   16   46 1
    31   17   18 am
    32   17   47 1
    33   18   19 2
    34   18   20 1
    35   20   21 2
    36   20   48 1
    37   21   22 1
    38   21   49 1
    39   22   26 1
    40   22   23 2
    41   23   24 1
    42   23   50 1
    43   24   25 2
    44   24   51 1
    45   25   26 1
    46   25   27 1
    47   27   32 ar
    48   27   28 ar
    49   28   29 ar
    50   28   52 1
    51   29   30 ar
    52   29   34 1
    53   30   31 ar
    54   30   53 1
    55   31   32 ar
    56   31   33 1
    57   32   54 1
@<TRIPOS>MOLECULE
ZINC12715629
   70    74     0     0     0
SMALL
USER_CHARGES
N-benzyl-N-[(1S)-2-(cyclohexylamino)-1-(4-fluorophenyl)-2-oxo-ethyl]-5-phenyl-1H-pyrrole-2-carboxamide
@<TRIPOS>ATOM
      1 C1          3.4669    5.0444    3.0485 C.ar      1 <0>        -0.1136
      2 C2          4.7683    4.6152    2.8665 C.ar      1 <0>        -0.1218
      3 C3          5.0941    3.8434    1.7669 C.ar      1 <0>        -0.0905
      4 C4          4.1187    3.5011    0.8492 C.ar      1 <0>        -0.1087
      5 C5          2.8185    3.9351    1.0282 C.ar      1 <0>        -0.1184
      6 C6          2.4915    4.7022    2.1307 C.ar      1 <0>        -0.1255
      7 C7          4.4740    2.6600   -0.3498 C.3       1 <0>         0.1485
      8 N1          4.1348    1.2602   -0.0821 N.am      1 <0>        -0.5901
      9 C8          2.8666    0.7085   -0.5652 C.3       1 <0>         0.1574
     10 H1          2.2841    0.3423    0.2802 H         1 <0>         0.0990
     11 C9          2.0911    1.7841   -1.2813 C.ar      1 <0>        -0.1225
     12 C10         0.9517    2.3140   -0.7050 C.ar      1 <0>        -0.0666
     13 C11         0.2366    3.2964   -1.3633 C.ar      1 <0>        -0.1518
     14 C12         0.6674    3.7571   -2.5959 C.ar      1 <0>         0.1233
     15 C13         1.8088    3.2258   -3.1720 C.ar      1 <0>        -0.1487
     16 C14         2.5196    2.2400   -2.5141 C.ar      1 <0>        -0.0622
     17 F1         -0.0286    4.7205   -3.2384 F         1 <0>        -0.1306
     18 C15         3.1428   -0.4284   -1.5151 C.2       1 <0>         0.4865
     19 O1          4.2864   -0.7465   -1.7639 O.2       1 <0>        -0.4909
     20 N2          2.1190   -1.0917   -2.0880 N.am      1 <0>        -0.7235
     21 C16         2.3875   -2.1970   -3.0114 C.3       1 <0>         0.1497
     22 C17         2.6220   -1.6413   -4.4175 C.3       1 <0>        -0.1269
     23 C18         2.9024   -2.7955   -5.3818 C.3       1 <0>        -0.1174
     24 C19         1.7033   -3.7457   -5.4024 C.3       1 <0>        -0.1222
     25 C20         1.4688   -4.3014   -3.9963 C.3       1 <0>        -0.1141
     26 C21         1.1884   -3.1471   -3.0319 C.3       1 <0>        -0.1297
     27 C22         4.9895    0.4800    0.6087 C.2       1 <0>         0.6089
     28 O2          6.0772    0.9139    0.9403 O.2       1 <0>        -0.5105
     29 C23         4.6091   -0.8912    0.9606 C.2       1 <0>        -0.0286
     30 C24         5.4083   -1.8157    1.6028 C.2       1 <0>        -0.0988
     31 C25         4.6642   -2.9858    1.7422 C.2       1 <0>        -0.1789
     32 C26         3.4238   -2.7613    1.1850 C.2       1 <0>         0.0804
     33 N3          3.3899   -1.4815    0.7141 N.pl3     1 <0>        -0.5426
     34 H2          2.6343   -1.0590    0.2765 H         1 <0>         0.4074
     35 C27         2.3168   -3.7383    1.1159 C.ar      1 <0>        -0.0174
     36 C28         1.1023   -3.3811    0.5275 C.ar      1 <0>        -0.1208
     37 C29         0.0748   -4.2992    0.4620 C.ar      1 <0>        -0.1107
     38 C30         0.2424   -5.5683    0.9873 C.ar      1 <0>        -0.1174
     39 C31         1.4417   -5.9271    1.5765 C.ar      1 <0>        -0.1093
     40 C32         2.4792   -5.0202    1.6439 C.ar      1 <0>        -0.0972
     41 H3          3.2122    5.6469    3.9079 H         1 <0>         0.1213
     42 H4          5.5304    4.8826    3.5835 H         1 <0>         0.1231
     43 H5          6.1108    3.5080    1.6247 H         1 <0>         0.1284
     44 H6          2.0573    3.6714    0.3088 H         1 <0>         0.1259
     45 H7          1.4747    5.0372    2.2731 H         1 <0>         0.1204
     46 H8          5.5425    2.7434   -0.5483 H         1 <0>         0.0959
     47 H9          3.9148    3.0098   -1.2176 H         1 <0>         0.0969
     48 H10         0.6177    1.9568    0.2580 H         1 <0>         0.1407
     49 H11        -0.6561    3.7070   -0.9149 H         1 <0>         0.1461
     50 H12         2.1432    3.5812   -4.1355 H         1 <0>         0.1444
     51 H13         3.4099    1.8254   -2.9633 H         1 <0>         0.1375
     52 H14         1.2043   -0.8373   -1.8890 H         1 <0>         0.3987
     53 H15         3.2744   -2.7383   -2.6820 H         1 <0>         0.0907
     54 H16         1.7351   -1.1000   -4.7468 H         1 <0>         0.0642
     55 H17         3.4762   -0.9644   -4.4029 H         1 <0>         0.0658
     56 H18         3.7893   -3.3368   -5.0525 H         1 <0>         0.0645
     57 H19         3.0695   -2.3997   -6.3836 H         1 <0>         0.0657
     58 H20         1.9031   -4.5680   -6.0894 H         1 <0>         0.0649
     59 H21         0.8164   -3.2044   -5.7317 H         1 <0>         0.0626
     60 H22         2.3558   -4.8427   -3.6669 H         1 <0>         0.0652
     61 H23         0.6146   -4.9783   -4.0109 H         1 <0>         0.0683
     62 H24         1.0214   -3.5430   -2.0302 H         1 <0>         0.0736
     63 H25         0.3015   -2.6058   -3.3613 H         1 <0>         0.0678
     64 H26         6.4240   -1.6608    1.9355 H         1 <0>         0.1516
     65 H27         4.9991   -3.9029    2.2040 H         1 <0>         0.1475
     66 H28         0.9689   -2.3895    0.1209 H         1 <0>         0.1065
     67 H29        -0.8640   -4.0254    0.0038 H         1 <0>         0.1248
     68 H30        -0.5665   -6.2821    0.9368 H         1 <0>         0.1249
     69 H31         1.5661   -6.9193    1.9843 H         1 <0>         0.1284
     70 H32         3.4150   -5.3016    2.1038 H         1 <0>         0.1305
@<TRIPOS>BOND
     1    1    6 ar
     2    1    2 ar
     3    1   41 1
     4    2    3 ar
     5    2   42 1
     6    3    4 ar
     7    3   43 1
     8    4    5 ar
     9    4    7 1
    10    5    6 ar
    11    5   44 1
    12    6   45 1
    13    7    8 1
    14    7   46 1
    15    7   47 1
    16    8    9 1
    17    8   27 am
    18    9   10 1
    19    9   11 1
    20    9   18 1
    21   11   16 ar
    22   11   12 ar
    23   12   13 ar
    24   12   48 1
    25   13   14 ar
    26   13   49 1
    27   14   15 ar
    28   14   17 1
    29   15   16 ar
    30   15   50 1
    31   16   51 1
    32   18   19 2
    33   18   20 am
    34   20   21 1
    35   20   52 1
    36   21   26 1
    37   21   22 1
    38   21   53 1
    39   22   23 1
    40   22   54 1
    41   22   55 1
    42   23   24 1
    43   23   56 1
    44   23   57 1
    45   24   25 1
    46   24   58 1
    47   24   59 1
    48   25   26 1
    49   25   60 1
    50   25   61 1
    51   26   62 1
    52   26   63 1
    53   27   28 2
    54   27   29 1
    55   29   33 1
    56   29   30 2
    57   30   31 1
    58   30   64 1
    59   31   32 2
    60   31   65 1
    61   32   33 1
    62   32   35 1
    63   33   34 1
    64   35   40 ar
    65   35   36 ar
    66   36   37 ar
    67   36   66 1
    68   37   38 ar
    69   37   67 1
    70   38   39 ar
    71   38   68 1
    72   39   40 ar
    73   39   69 1
    74   40   70 1
@<TRIPOS>MOLECULE
ZINC15134582
   72    75     0     0     0
SMALL
USER_CHARGES
N-[2-[(N'E)-N'-[[(2S,3R,4aS)-3,5,5-trimethyl-2,3,4,4a,6,7-hexahydro-1H-naphthalen-2-yl]methylene]hydrazino]-2-oxo-ethyl]-2,2-diphenyl-acetamide
@<TRIPOS>ATOM
      1 C1         -3.7462    3.7560  -10.6705 C.3       1 <0>        -0.1565
      2 C2         -2.4019    3.1223  -10.3070 C.3       1 <0>        -0.0817
      3 H1         -1.8526    3.7931   -9.6464 H         1 <0>         0.0746
      4 C3         -1.5905    2.8899  -11.5841 C.3       1 <0>        -0.1059
      5 C4         -2.3948    1.9991  -12.5335 C.3       1 <0>        -0.0402
      6 H2         -3.3145    2.5277  -12.7844 H         1 <0>         0.0787
      7 C5         -2.7735    0.7349  -11.8202 C.2       1 <0>        -0.1132
      8 C6         -2.5112   -0.4594  -12.2641 C.2       1 <0>        -0.1527
      9 C7         -1.7636   -0.6911  -13.5485 C.3       1 <0>        -0.0933
     10 C8         -0.8127    0.4908  -13.7732 C.3       1 <0>        -0.1074
     11 C9         -1.6443    1.7713  -13.8292 C.3       1 <0>        -0.0573
     12 C10        -2.6493    1.6657  -14.9779 C.3       1 <0>        -0.1454
     13 C11        -0.7161    2.9603  -14.0858 C.3       1 <0>        -0.1460
     14 C12        -3.4855    0.8733  -10.4844 C.3       1 <0>        -0.0758
     15 C13        -2.6444    1.7926   -9.5924 C.3       1 <0>        -0.0272
     16 H3         -1.6877    1.3154   -9.3798 H         1 <0>         0.0930
     17 C14        -3.3771    2.0444   -8.2998 C.2       1 <0>         0.0836
     18 N1         -2.8466    1.7021   -7.1862 N.2       1 <0>        -0.2329
     19 N2         -3.5278    1.9363   -5.9845 N.am      1 <0>        -0.5871
     20 C15        -2.9693    1.5759   -4.8121 C.2       1 <0>         0.5280
     21 O1         -1.8769    1.0489   -4.7972 O.2       1 <0>        -0.4971
     22 C16        -3.7021    1.8278   -3.5195 C.3       1 <0>         0.1068
     23 N3         -2.8909    1.3497   -2.3972 N.am      1 <0>        -0.7155
     24 C17        -3.3482    1.4713   -1.1352 C.2       1 <0>         0.5286
     25 O2         -4.4312    1.9766   -0.9287 O.2       1 <0>        -0.5236
     26 C18        -2.5137    0.9795    0.0193 C.3       1 <0>        -0.0227
     27 C19        -1.1977    1.7136    0.0366 C.ar      1 <0>        -0.0813
     28 C20        -1.1759    3.0947   -0.0191 C.ar      1 <0>        -0.1085
     29 C21         0.0310    3.7683    0.0024 C.ar      1 <0>        -0.1153
     30 C22         1.2163    3.0607    0.0744 C.ar      1 <0>        -0.1144
     31 C23         1.1947    1.6794    0.1248 C.ar      1 <0>        -0.1150
     32 C24        -0.0122    1.0058    0.1033 C.ar      1 <0>        -0.1063
     33 C25        -3.2464    1.2313    1.3119 C.ar      1 <0>        -0.0696
     34 C26        -3.7088    2.4999    1.6085 C.ar      1 <0>        -0.0796
     35 C27        -4.3852    2.7298    2.7919 C.ar      1 <0>        -0.1229
     36 C28        -4.5899    1.6935    3.6836 C.ar      1 <0>        -0.1154
     37 C29        -4.1230    0.4262    3.3894 C.ar      1 <0>        -0.1231
     38 C30        -3.4512    0.1950    2.2036 C.ar      1 <0>        -0.1085
     39 H4         -4.3230    3.9306   -9.7622 H         1 <0>         0.0521
     40 H5         -3.5750    4.7042  -11.1801 H         1 <0>         0.0581
     41 H6         -4.2984    3.0846  -11.3281 H         1 <0>         0.0654
     42 H7         -1.3875    3.8463  -12.0660 H         1 <0>         0.0753
     43 H8         -0.6496    2.3998  -11.3339 H         1 <0>         0.0665
     44 H9         -2.8411   -1.3133  -11.6909 H         1 <0>         0.1046
     45 H10        -1.1903   -1.6155  -13.4781 H         1 <0>         0.0692
     46 H11        -2.4687   -0.7579  -14.3770 H         1 <0>         0.0765
     47 H12        -0.1004    0.5510  -12.9503 H         1 <0>         0.0645
     48 H13        -0.2774    0.3582  -14.7134 H         1 <0>         0.0646
     49 H14        -3.2235    2.5898  -15.0444 H         1 <0>         0.0535
     50 H15        -2.1154    1.5016  -15.9139 H         1 <0>         0.0549
     51 H16        -3.3251    0.8305  -14.7939 H         1 <0>         0.0585
     52 H17        -0.0074    3.0521  -13.2628 H         1 <0>         0.0607
     53 H18        -0.1727    2.8025  -15.0174 H         1 <0>         0.0533
     54 H19        -1.3071    3.8731  -14.1600 H         1 <0>         0.0558
     55 H20        -3.5826   -0.1063  -10.0163 H         1 <0>         0.0716
     56 H21        -4.4729    1.3095  -10.6358 H         1 <0>         0.0779
     57 H22        -4.3497    2.5137   -8.3130 H         1 <0>         0.1119
     58 H23        -4.4014    2.3577   -5.9964 H         1 <0>         0.3880
     59 H24        -4.6539    1.2968   -3.5320 H         1 <0>         0.1051
     60 H25        -3.8837    2.8966   -3.4071 H         1 <0>         0.1043
     61 H26        -2.0247    0.9455   -2.5623 H         1 <0>         0.4149
     62 H27        -2.3321   -0.0894   -0.0930 H         1 <0>         0.1145
     63 H28        -2.1020    3.6475   -0.0751 H         1 <0>         0.1207
     64 H29         0.0479    4.8475   -0.0366 H         1 <0>         0.1236
     65 H30         2.1592    3.5870    0.0916 H         1 <0>         0.1236
     66 H31         2.1207    1.1265    0.1814 H         1 <0>         0.1256
     67 H32        -0.0291   -0.0734    0.1430 H         1 <0>         0.1256
     68 H33        -3.5449    3.3104    0.9138 H         1 <0>         0.1200
     69 H34        -4.7497    3.7201    3.0219 H         1 <0>         0.1216
     70 H35        -5.1145    1.8742    4.6102 H         1 <0>         0.1214
     71 H36        -4.2827   -0.3834    4.0862 H         1 <0>         0.1228
     72 H37        -3.0861   -0.7951    1.9739 H         1 <0>         0.1215
@<TRIPOS>BOND
     1    1    2 1
     2    1   39 1
     3    1   40 1
     4    1   41 1
     5    2    3 1
     6    2   15 1
     7    2    4 1
     8    4    5 1
     9    4   42 1
    10    4   43 1
    11    5    6 1
    12    5   11 1
    13    5    7 1
    14    7    8 2
    15    7   14 1
    16    8    9 1
    17    8   44 1
    18    9   10 1
    19    9   45 1
    20    9   46 1
    21   10   11 1
    22   10   47 1
    23   10   48 1
    24   11   12 1
    25   11   13 1
    26   12   49 1
    27   12   50 1
    28   12   51 1
    29   13   52 1
    30   13   53 1
    31   13   54 1
    32   14   15 1
    33   14   55 1
    34   14   56 1
    35   15   16 1
    36   15   17 1
    37   17   18 2
    38   17   57 1
    39   18   19 1
    40   19   20 am
    41   19   58 1
    42   20   21 2
    43   20   22 1
    44   22   23 1
    45   22   59 1
    46   22   60 1
    47   23   24 am
    48   23   61 1
    49   24   25 2
    50   24   26 1
    51   26   27 1
    52   26   33 1
    53   26   62 1
    54   27   32 ar
    55   27   28 ar
    56   28   29 ar
    57   28   63 1
    58   29   30 ar
    59   29   64 1
    60   30   31 ar
    61   30   65 1
    62   31   32 ar
    63   31   66 1
    64   32   67 1
    65   33   38 ar
    66   33   34 ar
    67   34   35 ar
    68   34   68 1
    69   35   36 ar
    70   35   69 1
    71   36   37 ar
    72   36   70 1
    73   37   38 ar
    74   37   71 1
    75   38   72 1
@<TRIPOS>MOLECULE
ZINC13564727
   61    66     0     0     0
SMALL
USER_CHARGES

@<TRIPOS>ATOM
      1 C1         -2.2497    0.5744    2.3694 C.ar      1 <0>        -0.1135
      2 C2         -1.1681    1.3427    1.9794 C.ar      1 <0>        -0.0941
      3 C3          0.0213    0.7352    1.6276 C.ar      1 <0>        -0.1024
      4 C4          0.1304   -0.6487    1.6660 C.ar      1 <0>         0.1383
      5 C5         -0.9576   -1.4174    2.0582 C.ar      1 <0>        -0.1416
      6 C6         -2.1443   -0.8039    2.4087 C.ar      1 <0>        -0.0898
      7 N1          1.3351   -1.2679    1.3095 N.pl3     1 <0>        -0.3263
      8 C7          1.8321   -2.3994    1.8741 C.2       1 <0>         0.3624
      9 C8          3.0422   -2.6803    1.2382 C.2       1 <0>        -0.2563
     10 C9          3.7902   -3.8118    1.6235 C.2       1 <0>         0.0700
     11 C10         3.3142   -4.6129    2.6147 C.2       1 <0>        -0.2485
     12 C11         2.0915   -4.3059    3.2384 C.2       1 <0>         0.5552
     13 O1          1.6708   -5.0284    4.1267 O.2       1 <0>        -0.5179
     14 N2          1.3798   -3.2248    2.8686 N.am      1 <0>        -0.6061
     15 H1          0.5389   -3.0288    3.3104 H         1 <0>         0.4147
     16 C12         4.0957   -5.8281    3.0434 C.3       1 <0>         0.1963
     17 N3          4.9316   -5.4889    4.1977 N.pl3     1 <0>        -0.7427
     18 C13         5.7528   -6.4624    4.7770 C.ar      1 <0>         0.1930
     19 C14         5.7801   -7.7488    4.2545 C.ar      1 <0>        -0.1602
     20 C15         6.5912   -8.7089    4.8265 C.ar      1 <0>        -0.1419
     21 C16         7.3787   -8.3887    5.9228 C.ar      1 <0>         0.0623
     22 C17         7.3516   -7.1040    6.4456 C.ar      1 <0>        -0.0944
     23 C18         6.5453   -6.1412    5.8712 C.ar      1 <0>        -0.1586
     24 O2          8.1771   -9.3347    6.4855 O.3       1 <0>        -0.2652
     25 C19         8.1782  -10.5775    5.9362 C.ar      1 <0>         0.0890
     26 C20         9.0765  -10.8901    4.9258 C.ar      1 <0>        -0.1283
     27 C21         9.0755  -12.1542    4.3691 C.ar      1 <0>        -0.1069
     28 C22         8.1800  -13.1077    4.8173 C.ar      1 <0>        -0.1202
     29 C23         7.2838  -12.7989    5.8240 C.ar      1 <0>        -0.1067
     30 C24         7.2848  -11.5381    6.3885 C.ar      1 <0>        -0.1283
     31 C25         3.2419   -1.6266    0.2391 C.2       1 <0>         0.1911
     32 N4          2.2085   -0.8202    0.3136 N.2       1 <0>        -0.2429
     33 C26         4.3923   -1.4988   -0.6865 C.ar      1 <0>        -0.0404
     34 C27         5.6679   -1.8820   -0.2738 C.ar      1 <0>        -0.0591
     35 C28         6.7356   -1.7616   -1.1391 C.ar      1 <0>        -0.1517
     36 C29         6.5420   -1.2604   -2.4163 C.ar      1 <0>         0.1188
     37 C30         5.2764   -0.8779   -2.8307 C.ar      1 <0>        -0.1530
     38 C31         4.2015   -1.0004   -1.9747 C.ar      1 <0>        -0.0521
     39 F1          7.5907   -1.1439   -3.2601 F         1 <0>        -0.1331
     40 H2         -3.1773    1.0521    2.6483 H         1 <0>         0.1352
     41 H3         -1.2537    2.4189    1.9494 H         1 <0>         0.1382
     42 H4          0.8656    1.3357    1.3227 H         1 <0>         0.1386
     43 H5         -0.8761   -2.4939    2.0887 H         1 <0>         0.1249
     44 H6         -2.9908   -1.4011    2.7137 H         1 <0>         0.1385
     45 H7          4.7278   -4.0394    1.1383 H         1 <0>         0.1478
     46 H8          3.4054   -6.6262    3.3167 H         1 <0>         0.0747
     47 H9          4.7292   -6.1613    2.2214 H         1 <0>         0.0712
     48 H10         4.9157   -4.5893    4.5604 H         1 <0>         0.3982
     49 H11         5.1668   -7.9983    3.4012 H         1 <0>         0.1241
     50 H12         6.6122   -9.7095    4.4205 H         1 <0>         0.1252
     51 H13         7.9647   -6.8556    7.2993 H         1 <0>         0.1307
     52 H14         6.5277   -5.1399    6.2756 H         1 <0>         0.1272
     53 H15         9.7757  -10.1455    4.5748 H         1 <0>         0.1303
     54 H16         9.7745  -12.3980    3.5827 H         1 <0>         0.1297
     55 H17         8.1804  -14.0953    4.3802 H         1 <0>         0.1275
     56 H18         6.5852  -13.5453    6.1721 H         1 <0>         0.1297
     57 H19         6.5878  -11.2989    7.1780 H         1 <0>         0.1303
     58 H20         5.8199   -2.2720    0.7217 H         1 <0>         0.1397
     59 H21         7.7240   -2.0581   -0.8203 H         1 <0>         0.1451
     60 H22         5.1303   -0.4874   -3.8271 H         1 <0>         0.1439
     61 H23         3.2146   -0.7061   -2.3001 H         1 <0>         0.1406
@<TRIPOS>BOND
     1    1    6 ar
     2    1    2 ar
     3    1   40 1
     4    2    3 ar
     5    2   41 1
     6    3    4 ar
     7    3   42 1
     8    4    5 ar
     9    4    7 1
    10    5    6 ar
    11    5   43 1
    12    6   44 1
    13    7   32 1
    14    7    8 1
    15    8   14 1
    16    8    9 2
    17    9   10 1
    18    9   31 1
    19   10   11 2
    20   10   45 1
    21   11   12 1
    22   11   16 1
    23   12   13 2
    24   12   14 am
    25   14   15 1
    26   16   17 1
    27   16   46 1
    28   16   47 1
    29   17   18 1
    30   17   48 1
    31   18   23 ar
    32   18   19 ar
    33   19   20 ar
    34   19   49 1
    35   20   21 ar
    36   20   50 1
    37   21   22 ar
    38   21   24 1
    39   22   23 ar
    40   22   51 1
    41   23   52 1
    42   24   25 1
    43   25   30 ar
    44   25   26 ar
    45   26   27 ar
    46   26   53 1
    47   27   28 ar
    48   27   54 1
    49   28   29 ar
    50   28   55 1
    51   29   30 ar
    52   29   56 1
    53   30   57 1
    54   31   32 2
    55   31   33 1
    56   33   38 ar
    57   33   34 ar
    58   34   35 ar
    59   34   58 1
    60   35   36 ar
    61   35   59 1
    62   36   37 ar
    63   36   39 1
    64   37   38 ar
    65   37   60 1
    66   38   61 1
@<TRIPOS>MOLECULE
ZINC40813536
   68    72     0     0     0
SMALL
USER_CHARGES

@<TRIPOS>ATOM
      1 C1         -1.6839    0.9460   -0.7404 C.3       1 <0>        -0.1541
      2 C2         -0.8282   -0.2703   -0.3807 C.3       1 <0>        -0.1260
      3 C3         -0.1126   -0.7790   -1.6337 C.3       1 <0>        -0.1141
      4 C4          0.7431   -1.9953   -1.2740 C.3       1 <0>        -0.0809
      5 C5          1.4479   -2.4963   -2.5082 C.ar      1 <0>        -0.0931
      6 C6          0.8411   -3.4435   -3.3126 C.ar      1 <0>        -0.0976
      7 C7          1.4841   -3.9044   -4.4446 C.ar      1 <0>        -0.1395
      8 C8          2.7416   -3.4156   -4.7748 C.ar      1 <0>         0.1395
      9 C9          3.3482   -2.4643   -3.9647 C.ar      1 <0>        -0.1162
     10 C10         2.6975   -2.0037   -2.8369 C.ar      1 <0>        -0.0966
     11 N1          3.3955   -3.8805   -5.9199 N.am      1 <0>        -0.6655
     12 C11         4.7391   -3.9862   -5.9326 C.2       1 <0>         0.6091
     13 O1          5.3761   -3.7697   -4.9184 O.2       1 <0>        -0.4922
     14 C12         5.4336   -4.3624   -7.1687 C.2       1 <0>        -0.1068
     15 C13         6.7854   -4.5087   -7.3122 C.2       1 <0>        -0.0218
     16 C14         7.0002   -4.8718   -8.6474 C.2       1 <0>        -0.1553
     17 C15         5.7715   -4.9299   -9.2621 C.2       1 <0>         0.0676
     18 O2          4.8439   -4.6283   -8.3564 O.3       1 <0>        -0.1464
     19 C16         5.5980   -5.2864  -10.7167 C.3       1 <0>        -0.0446
     20 C17         6.9173   -5.0542  -11.4580 C.3       1 <0>        -0.1097
     21 C18         8.0674   -5.7838  -10.7559 C.3       1 <0>        -0.1192
     22 C19         8.2530   -5.1656   -9.3779 C.2       1 <0>         0.1661
     23 N2          9.4246   -4.9136   -8.8800 N.2       1 <0>        -0.2150
     24 N3         10.5780   -5.2128   -9.6168 N.am      1 <0>        -0.5796
     25 C20        11.7948   -4.9511   -9.0997 C.2       1 <0>         0.5825
     26 O3         11.8916   -4.4550   -7.9931 O.2       1 <0>        -0.4917
     27 C21        13.0083   -5.2659   -9.8750 C.ar      1 <0>        -0.1273
     28 C22        12.9153   -5.7204  -11.1843 C.ar      1 <0>        -0.0676
     29 C23        14.0598   -6.0161  -11.9121 C.ar      1 <0>        -0.1347
     30 C24        15.3051   -5.8752  -11.3808 C.ar      1 <0>        -0.0651
     31 C25        15.4743   -5.4207  -10.0623 C.ar      1 <0>        -0.0614
     32 C26        14.3345   -5.1007   -9.2844 C.ar      1 <0>        -0.0090
     33 C27        14.4991   -4.6418   -7.9719 C.ar      1 <0>        -0.1134
     34 C28        15.7546   -4.5025   -7.4596 C.ar      1 <0>        -0.1089
     35 C29        16.8777   -4.8100   -8.2240 C.ar      1 <0>        -0.1124
     36 C30        16.7535   -5.2705   -9.4993 C.ar      1 <0>        -0.1076
     37 C31         7.8340   -4.3174   -6.2469 C.3       1 <0>        -0.1021
     38 H1         -1.0454    1.7342   -1.1394 H         1 <0>         0.0536
     39 H2         -2.4221    0.6619   -1.4903 H         1 <0>         0.0534
     40 H3         -2.1937    1.3084    0.1523 H         1 <0>         0.0538
     41 H4         -0.0899    0.0138    0.3693 H         1 <0>         0.0618
     42 H5         -1.4666   -1.0585    0.0184 H         1 <0>         0.0615
     43 H6         -0.8509   -1.0631   -2.3836 H         1 <0>         0.0629
     44 H7          0.5258    0.0092   -2.0327 H         1 <0>         0.0632
     45 H8          1.4813   -1.7112   -0.5241 H         1 <0>         0.0724
     46 H9          0.1046   -2.7835   -0.8750 H         1 <0>         0.0720
     47 H10        -0.1365   -3.8234   -3.0551 H         1 <0>         0.1262
     48 H11         1.0098   -4.6444   -5.0722 H         1 <0>         0.1257
     49 H12         4.3261   -2.0824   -4.2184 H         1 <0>         0.1349
     50 H13         3.1669   -1.2610   -2.2089 H         1 <0>         0.1260
     51 H14         2.8822   -4.1268   -6.7052 H         1 <0>         0.4146
     52 H15         5.3124   -6.3348  -10.8025 H         1 <0>         0.1037
     53 H16         4.8202   -4.6605  -11.1541 H         1 <0>         0.1007
     54 H17         6.8261   -5.4258  -12.4786 H         1 <0>         0.0944
     55 H18         7.1319   -3.9858  -11.4833 H         1 <0>         0.0770
     56 H19         7.8243   -6.8415  -10.6546 H         1 <0>         0.1000
     57 H20         8.9832   -5.6705  -11.3361 H         1 <0>         0.0786
     58 H21        10.5009   -5.6083  -10.4992 H         1 <0>         0.3846
     59 H22        11.9441   -5.8451  -11.6399 H         1 <0>         0.1244
     60 H23        13.9593   -6.3682  -12.9282 H         1 <0>         0.1320
     61 H24        16.1718   -6.1155  -11.9788 H         1 <0>         0.1335
     62 H25        13.6365   -4.3994   -7.3691 H         1 <0>         0.1635
     63 H26        15.8802   -4.1485   -6.4470 H         1 <0>         0.1273
     64 H27        17.8617   -4.6904   -7.7953 H         1 <0>         0.1261
     65 H28        17.6333   -5.5055  -10.0799 H         1 <0>         0.1309
     66 H29         8.0070   -5.2633   -5.7335 H         1 <0>         0.0774
     67 H30         8.7621   -3.9788   -6.7073 H         1 <0>         0.0878
     68 H31         7.4913   -3.5720   -5.5294 H         1 <0>         0.0868
@<TRIPOS>BOND
     1    1    2 1
     2    1   38 1
     3    1   39 1
     4    1   40 1
     5    2    3 1
     6    2   41 1
     7    2   42 1
     8    3    4 1
     9    3   43 1
    10    3   44 1
    11    4    5 1
    12    4   45 1
    13    4   46 1
    14    5   10 ar
    15    5    6 ar
    16    6    7 ar
    17    6   47 1
    18    7    8 ar
    19    7   48 1
    20    8    9 ar
    21    8   11 1
    22    9   10 ar
    23    9   49 1
    24   10   50 1
    25   11   12 am
    26   11   51 1
    27   12   13 2
    28   12   14 1
    29   14   18 1
    30   14   15 2
    31   15   16 1
    32   15   37 1
    33   16   22 1
    34   16   17 2
    35   17   18 1
    36   17   19 1
    37   19   20 1
    38   19   52 1
    39   19   53 1
    40   20   21 1
    41   20   54 1
    42   20   55 1
    43   21   22 1
    44   21   56 1
    45   21   57 1
    46   22   23 2
    47   23   24 1
    48   24   25 am
    49   24   58 1
    50   25   26 2
    51   25   27 1
    52   27   32 ar
    53   27   28 ar
    54   28   29 ar
    55   28   59 1
    56   29   30 ar
    57   29   60 1
    58   30   31 ar
    59   30   61 1
    60   31   36 ar
    61   31   32 ar
    62   32   33 ar
    63   33   34 ar
    64   33   62 1
    65   34   35 ar
    66   34   63 1
    67   35   36 ar
    68   35   64 1
    69   36   65 1
    70   37   66 1
    71   37   67 1
    72   37   68 1
@<TRIPOS>MOLECULE
ZINC02542481
   49    51     0     0     0
SMALL
USER_CHARGES
[4-bromo-2-[[2-(2-chlorobenzoyl)aminoacetyl]aminoiminomethyl]phenyl] benzoate
@<TRIPOS>ATOM
      1 C1          4.1898   -1.5345    1.1473 C.ar      1 <0>        -0.0833
      2 C2          3.6697   -2.0870    2.3044 C.ar      1 <0>        -0.1337
      3 C3          2.5327   -2.8662    2.2498 C.ar      1 <0>        -0.0559
      4 C4          1.9068   -3.0971    1.0231 C.ar      1 <0>        -0.1052
      5 C5          2.4403   -2.5412   -0.1414 C.ar      1 <0>        -0.0344
      6 C6          3.5746   -1.7593   -0.0715 C.ar      1 <0>        -0.1308
      7 C7          0.6893   -3.9308    0.9569 C.2       1 <0>         0.5307
      8 O1          0.2334   -4.4219    1.9702 O.2       1 <0>        -0.4981
      9 O2          0.0843   -4.1467   -0.2274 O.3       1 <0>        -0.2752
     10 C8         -0.9571   -5.0187   -0.2380 C.ar      1 <0>         0.1388
     11 C9         -0.7404   -6.3573   -0.5218 C.ar      1 <0>        -0.1186
     12 C10        -1.8010   -7.2431   -0.5377 C.ar      1 <0>        -0.0582
     13 C11        -3.0858   -6.8023   -0.2654 C.ar      1 <0>        -0.0933
     14 C12        -3.3183   -5.4734    0.0243 C.ar      1 <0>        -0.0476
     15 C13        -2.2543   -4.5688    0.0433 C.ar      1 <0>        -0.0512
     16 C14        -2.4953   -3.1479    0.3515 C.2       1 <0>         0.1091
     17 N1         -1.4969   -2.3219    0.4272 N.2       1 <0>        -0.2126
     18 N2         -1.7128   -0.9970    0.8282 N.am      1 <0>        -0.5791
     19 C15        -0.6920   -0.1170    0.8245 C.2       1 <0>         0.5257
     20 O3          0.4308   -0.4916    0.5586 O.2       1 <0>        -0.4836
     21 C16        -0.9453    1.3323    1.1507 C.3       1 <0>         0.1096
     22 N3          0.3146    2.0764    1.0794 N.am      1 <0>        -0.7155
     23 C17         0.3311    3.3997    1.3346 C.2       1 <0>         0.5595
     24 O4         -0.6995    3.9758    1.6240 O.2       1 <0>        -0.5109
     25 C18         1.6020    4.1502    1.2628 C.ar      1 <0>        -0.1329
     26 C19         2.7886    3.4907    0.9363 C.ar      1 <0>        -0.0721
     27 C20         3.9703    4.1979    0.8657 C.ar      1 <0>        -0.1233
     28 C21         3.9846    5.5570    1.1278 C.ar      1 <0>        -0.0779
     29 C22         2.8149    6.2166    1.4574 C.ar      1 <0>        -0.1213
     30 C23         1.6228    5.5218    1.5267 C.ar      1 <0>         0.0156
     31 Cl1         0.1550    6.3509    1.9411 Cl        1 <0>        -0.0288
     32 Br1        -4.5266   -8.0268   -0.2904 Br        1 <0>        -0.0319
     33 H1          5.0798   -0.9246    1.1958 H         1 <0>         0.1262
     34 H2          4.1549   -1.9075    3.2524 H         1 <0>         0.1289
     35 H3          2.1278   -3.2968    3.1536 H         1 <0>         0.1303
     36 H4          1.9635   -2.7193   -1.0939 H         1 <0>         0.1308
     37 H5          3.9860   -1.3253   -0.9709 H         1 <0>         0.1276
     38 H6          0.2585   -6.7083   -0.7350 H         1 <0>         0.1460
     39 H7         -1.6273   -8.2847   -0.7639 H         1 <0>         0.1469
     40 H8         -4.3212   -5.1335    0.2364 H         1 <0>         0.1485
     41 H9         -3.5025   -2.7939    0.5143 H         1 <0>         0.1320
     42 H10        -2.5969   -0.7130    1.1084 H         1 <0>         0.3915
     43 H11        -1.6536    1.7476    0.4338 H         1 <0>         0.1066
     44 H12        -1.3577    1.4116    2.1565 H         1 <0>         0.1054
     45 H13         1.1370    1.6167    0.8485 H         1 <0>         0.4116
     46 H14         2.7803    2.4295    0.7358 H         1 <0>         0.1358
     47 H15         4.8879    3.6892    0.6096 H         1 <0>         0.1374
     48 H16         4.9139    6.1047    1.0750 H         1 <0>         0.1389
     49 H17         2.8333    7.2770    1.6614 H         1 <0>         0.1418
@<TRIPOS>BOND
     1    1    6 ar
     2    1    2 ar
     3    1   33 1
     4    2    3 ar
     5    2   34 1
     6    3    4 ar
     7    3   35 1
     8    4    5 ar
     9    4    7 1
    10    5    6 ar
    11    5   36 1
    12    6   37 1
    13    7    8 2
    14    7    9 1
    15    9   10 1
    16   10   15 ar
    17   10   11 ar
    18   11   12 ar
    19   11   38 1
    20   12   13 ar
    21   12   39 1
    22   13   14 ar
    23   13   32 1
    24   14   15 ar
    25   14   40 1
    26   15   16 1
    27   16   17 2
    28   16   41 1
    29   17   18 1
    30   18   19 am
    31   18   42 1
    32   19   20 2
    33   19   21 1
    34   21   22 1
    35   21   43 1
    36   21   44 1
    37   22   23 am
    38   22   45 1
    39   23   24 2
    40   23   25 1
    41   25   30 ar
    42   25   26 ar
    43   26   27 ar
    44   26   46 1
    45   27   28 ar
    46   27   47 1
    47   28   29 ar
    48   28   48 1
    49   29   30 ar
    50   29   49 1
    51   30   31 1
@<TRIPOS>MOLECULE
ZINC10041069
   56    57     0     0     0
SMALL
USER_CHARGES
N-[1-[(3-bromo-5-ethoxy-4-methoxy-phenyl)methyleneaminocarbamoyl]-2-methyl-propyl]-2-chloro-benzamide
@<TRIPOS>ATOM
      1 C1         13.7018    0.9093   -1.9260 C.3       1 <0>        -0.1531
      2 C2         12.2123    1.2273   -1.7797 C.3       1 <0>         0.0496
      3 O1         11.9235    2.4660   -2.4308 O.3       1 <0>        -0.2987
      4 C3         10.6341    2.8970   -2.3940 C.ar      1 <0>         0.1202
      5 C4          9.6733    2.1472   -1.7415 C.ar      1 <0>        -0.1571
      6 C5          8.3484    2.5896   -1.7104 C.ar      1 <0>        -0.0158
      7 C6          8.0027    3.7936   -2.3294 C.ar      1 <0>        -0.0751
      8 C7          8.9681    4.5395   -2.9738 C.ar      1 <0>        -0.0815
      9 C8         10.2832    4.0965   -3.0088 C.ar      1 <0>         0.1073
     10 O2         11.2308    4.8351   -3.6450 O.3       1 <0>        -0.3154
     11 C9         11.9225    5.8130   -2.8658 C.3       1 <0>         0.0347
     12 Br1         8.4986    6.1684   -3.8117 Br        1 <0>        -0.0178
     13 C10         7.3187    1.7911   -1.0207 C.2       1 <0>         0.1110
     14 N1          6.0894    2.2063   -0.9881 N.2       1 <0>        -0.2170
     15 N2          5.1109    1.4475   -0.3328 N.am      1 <0>        -0.5787
     16 C11         3.8344    1.8786   -0.2989 C.2       1 <0>         0.5341
     17 O3          3.5490    2.9657   -0.7556 O.2       1 <0>        -0.4914
     18 C12         2.7616    1.0103    0.3062 C.3       1 <0>         0.1423
     19 H1          2.9141   -0.0239   -0.0027 H         1 <0>         0.1181
     20 C13         2.8312    1.1024    1.8318 C.3       1 <0>        -0.1004
     21 C14         2.5047    2.5310    2.2719 C.3       1 <0>        -0.1517
     22 C15         1.8186    0.1350    2.4479 C.3       1 <0>        -0.1386
     23 N3          1.4473    1.4679   -0.1513 N.am      1 <0>        -0.7091
     24 C16         0.4080    0.6102   -0.1812 C.2       1 <0>         0.5608
     25 O4          0.5613   -0.5430    0.1714 O.2       1 <0>        -0.5047
     26 C17        -0.9163    1.0702   -0.6484 C.ar      1 <0>        -0.1333
     27 C18        -1.0974    2.3955   -1.0487 C.ar      1 <0>        -0.0734
     28 C19        -2.3344    2.8169   -1.4891 C.ar      1 <0>        -0.1232
     29 C20        -3.3988    1.9327   -1.5243 C.ar      1 <0>        -0.0780
     30 C21        -3.2294    0.6201   -1.1242 C.ar      1 <0>        -0.1217
     31 C22        -1.9943    0.1825   -0.6861 C.ar      1 <0>         0.0157
     32 Cl1        -1.7828   -1.4656   -0.1835 Cl        1 <0>        -0.0286
     33 H2         13.9221   -0.0356   -1.4293 H         1 <0>         0.0810
     34 H3         13.9545    0.8315   -2.9834 H         1 <0>         0.0689
     35 H4         14.2898    1.7055   -1.4695 H         1 <0>         0.0674
     36 H5         11.9596    1.3050   -0.7222 H         1 <0>         0.0646
     37 H6         11.6243    0.4311   -2.2362 H         1 <0>         0.0658
     38 H7          9.9454    1.2193   -1.2604 H         1 <0>         0.1458
     39 H8          6.9802    4.1401   -2.3038 H         1 <0>         0.1526
     40 H9         12.6489    6.3299   -3.4930 H         1 <0>         0.0998
     41 H10        11.2074    6.5335   -2.4688 H         1 <0>         0.0496
     42 H11        12.4390    5.3216   -2.0412 H         1 <0>         0.0495
     43 H12         7.5873    0.8607   -0.5427 H         1 <0>         0.1284
     44 H13         5.3521    0.6118    0.0966 H         1 <0>         0.3909
     45 H14         3.8347    0.8396    2.1663 H         1 <0>         0.0820
     46 H15         1.5011    2.7938    1.9374 H         1 <0>         0.0607
     47 H16         2.5542    2.5966    3.3588 H         1 <0>         0.0625
     48 H17         3.2261    3.2202    1.8330 H         1 <0>         0.0564
     49 H18         1.9849   -0.8665    2.0510 H         1 <0>         0.0684
     50 H19         1.9412    0.1216    3.5309 H         1 <0>         0.0546
     51 H20         0.8081    0.4606    2.2007 H         1 <0>         0.0583
     52 H21         1.3249    2.3881   -0.4326 H         1 <0>         0.4100
     53 H22        -0.2693    3.0881   -1.0178 H         1 <0>         0.1355
     54 H23        -2.4742    3.8408   -1.8028 H         1 <0>         0.1375
     55 H24        -4.3664    2.2698   -1.8656 H         1 <0>         0.1387
     56 H25        -4.0642   -0.0645   -1.1539 H         1 <0>         0.1415
@<TRIPOS>BOND
     1    1    2 1
     2    1   33 1
     3    1   34 1
     4    1   35 1
     5    2    3 1
     6    2   36 1
     7    2   37 1
     8    3    4 1
     9    4    9 ar
    10    4    5 ar
    11    5    6 ar
    12    5   38 1
    13    6    7 ar
    14    6   13 1
    15    7    8 ar
    16    7   39 1
    17    8    9 ar
    18    8   12 1
    19    9   10 1
    20   10   11 1
    21   11   40 1
    22   11   41 1
    23   11   42 1
    24   13   14 2
    25   13   43 1
    26   14   15 1
    27   15   16 am
    28   15   44 1
    29   16   17 2
    30   16   18 1
    31   18   19 1
    32   18   20 1
    33   18   23 1
    34   20   21 1
    35   20   22 1
    36   20   45 1
    37   21   46 1
    38   21   47 1
    39   21   48 1
    40   22   49 1
    41   22   50 1
    42   22   51 1
    43   23   24 am
    44   23   52 1
    45   24   25 2
    46   24   26 1
    47   26   31 ar
    48   26   27 ar
    49   27   28 ar
    50   27   53 1
    51   28   29 ar
    52   28   54 1
    53   29   30 ar
    54   29   55 1
    55   30   31 ar
    56   30   56 1
    57   31   32 1
@<TRIPOS>MOLECULE
ZINC20829099
   61    64     0     0     0
SMALL
USER_CHARGES
N-(4-chloro-3-methoxy-phenyl)-3-[[5-[(m-tolylamino)methyl]-4-phenyl-1,2,4-triazol-3-yl]sulfanyl]propanamide
@<TRIPOS>ATOM
      1 C1         -3.9726   -2.6131    0.4176 C.3       1 <0>        -0.1194
      2 C2         -2.6150   -1.9770    0.2645 C.ar      1 <0>        -0.0375
      3 C3         -1.4902   -2.7717    0.1368 C.ar      1 <0>        -0.1786
      4 C4         -0.2428   -2.1921   -0.0034 C.ar      1 <0>        -0.0669
      5 C5         -0.1160   -0.8168   -0.0159 C.ar      1 <0>        -0.2058
      6 C6         -1.2434   -0.0158    0.1120 C.ar      1 <0>         0.2271
      7 C7         -2.4948   -0.6014    0.2576 C.ar      1 <0>        -0.1949
      8 N1         -1.1187    1.3753    0.1002 N.pl3     1 <0>        -0.7542
      9 C8          0.2024    1.9911   -0.0473 C.3       1 <0>         0.2220
     10 C9          0.0621    3.4915   -0.0291 C.2       1 <0>         0.1760
     11 N2         -0.1214    4.2627   -1.0634 N.2       1 <0>        -0.2550
     12 N3         -0.2018    5.4902   -0.6915 N.2       1 <0>        -0.2793
     13 C10        -0.0634    5.5728    0.6115 C.2       1 <0>         0.1686
     14 N4          0.1097    4.2981    1.0769 N.pl3     1 <0>        -0.4103
     15 C11         0.2974    3.9002    2.4086 C.ar      1 <0>         0.0957
     16 C12        -0.6601    3.1206    3.0430 C.ar      1 <0>        -0.0901
     17 C13        -0.4697    2.7251    4.3526 C.ar      1 <0>        -0.1043
     18 C14         0.6676    3.1152    5.0356 C.ar      1 <0>        -0.0974
     19 C15         1.6204    3.8965    4.4081 C.ar      1 <0>        -0.1043
     20 C16         1.4383    4.2899    3.0967 C.ar      1 <0>        -0.0969
     21 S1         -0.0947    7.0460    1.5776 S.3       1 <0>         0.0168
     22 C17        -0.3575    8.2722    0.2724 C.3       1 <0>        -0.0974
     23 C18        -0.4207    9.6701    0.8911 C.3       1 <0>        -0.1279
     24 C19        -0.6395   10.6910   -0.1956 C.2       1 <0>         0.5227
     25 O1         -0.7355   10.3355   -1.3513 O.2       1 <0>        -0.5067
     26 N5         -0.7285   11.9990    0.1166 N.am      1 <0>        -0.6865
     27 C20        -0.8209   12.9565   -0.9001 C.ar      1 <0>         0.1977
     28 C21        -0.1669   12.7527   -2.1085 C.ar      1 <0>        -0.1494
     29 C22        -0.2621   13.6951   -3.1141 C.ar      1 <0>        -0.0503
     30 C23        -0.9990   14.8485   -2.9165 C.ar      1 <0>        -0.0861
     31 C24        -1.6503   15.0594   -1.7085 C.ar      1 <0>         0.1584
     32 C25        -1.5612   14.1130   -0.6998 C.ar      1 <0>        -0.2284
     33 O2         -2.3751   16.1929   -1.5154 O.3       1 <0>        -0.3016
     34 C26        -3.0189   16.3434   -0.2485 C.3       1 <0>         0.0215
     35 Cl1        -1.1103   16.0336   -4.1801 Cl        1 <0>        -0.0551
     36 H1         -3.8685   -3.7080    0.4001 H         1 <0>         0.0662
     37 H2         -4.6228   -2.2933   -0.4100 H         1 <0>         0.0700
     38 H3         -4.4173   -2.3023    1.3745 H         1 <0>         0.0693
     39 H4         -1.5865   -3.8473    0.1471 H         1 <0>         0.1175
     40 H5          0.6335   -2.8156   -0.1029 H         1 <0>         0.1204
     41 H6          0.8588   -0.3647   -0.1248 H         1 <0>         0.1172
     42 H7         -3.3730    0.0185    0.3618 H         1 <0>         0.1176
     43 H8         -2.0124    2.0085    0.2017 H         1 <0>         0.4193
     44 H9          0.8499    1.6733    0.7832 H         1 <0>         0.0791
     45 H10         0.6493    1.6762   -1.0018 H         1 <0>         0.0979
     46 H11        -1.5510    2.8200    2.5116 H         1 <0>         0.1287
     47 H12        -1.2118    2.1143    4.8450 H         1 <0>         0.1362
     48 H13         0.8121    2.8088    6.0611 H         1 <0>         0.1346
     49 H14         2.5076    4.1997    4.9441 H         1 <0>         0.1375
     50 H15         2.1829    4.8999    2.6070 H         1 <0>         0.1321
     51 H16         0.4740    8.2266   -0.4463 H         1 <0>         0.1101
     52 H17        -1.3032    8.0580   -0.2469 H         1 <0>         0.1097
     53 H18        -1.2522    9.7157    1.6098 H         1 <0>         0.1107
     54 H19         0.5250    9.8843    1.4104 H         1 <0>         0.1123
     55 H20        -0.7285   12.3141    1.1705 H         1 <0>         0.4384
     56 H21         0.4129   11.8548   -2.2636 H         1 <0>         0.1444
     57 H22         0.2434   13.5328   -4.0546 H         1 <0>         0.1445
     58 H23        -2.0669   14.2755    0.2406 H         1 <0>         0.1406
     59 H24        -3.5667   17.2970   -0.2266 H         1 <0>         0.1064
     60 H25        -2.2626   16.3365    0.5502 H         1 <0>         0.0586
     61 H26        -3.7229   15.5125   -0.0940 H         1 <0>         0.0585
@<TRIPOS>BOND
     1    1    2 1
     2    1   36 1
     3    1   37 1
     4    1   38 1
     5    2    7 ar
     6    2    3 ar
     7    3    4 ar
     8    3   39 1
     9    4    5 ar
    10    4   40 1
    11    5    6 ar
    12    5   41 1
    13    6    7 ar
    14    6    8 1
    15    7   42 1
    16    8    9 1
    17    8   43 1
    18    9   10 1
    19    9   44 1
    20    9   45 1
    21   10   14 1
    22   10   11 2
    23   11   12 1
    24   12   13 2
    25   13   14 1
    26   13   21 1
    27   14   15 1
    28   15   20 ar
    29   15   16 ar
    30   16   17 ar
    31   16   46 1
    32   17   18 ar
    33   17   47 1
    34   18   19 ar
    35   18   48 1
    36   19   20 ar
    37   19   49 1
    38   20   50 1
    39   21   22 1
    40   22   23 1
    41   22   51 1
    42   22   52 1
    43   23   24 1
    44   23   53 1
    45   23   54 1
    46   24   25 2
    47   24   26 am
    48   26   27 1
    49   26   55 1
    50   27   32 ar
    51   27   28 ar
    52   28   29 ar
    53   28   56 1
    54   29   30 ar
    55   29   57 1
    56   30   31 ar
    57   30   35 1
    58   31   32 ar
    59   31   33 1
    60   32   58 1
    61   33   34 1
    62   34   59 1
    63   34   60 1
    64   34   61 1
@<TRIPOS>MOLECULE
ZINC36053213
   63    66     0     0     0
SMALL
USER_CHARGES

@<TRIPOS>ATOM
      1 C1          0.3336    1.1691    0.8816 C.3       1 <0>        -0.0957
      2 C2          0.2621   -0.2878    0.5029 C.2       1 <0>         0.3037
      3 C3         -0.9642   -0.9218    0.4428 C.2       1 <0>        -0.3884
      4 C4         -0.9838   -2.3841    0.0575 C.3       1 <0>         0.2614
      5 H1         -1.6089   -2.4891   -0.8293 H         1 <0>         0.0758
      6 N1          0.3269   -3.0264   -0.2277 N.pl3     1 <0>        -0.5184
      7 C5          0.5467   -4.3391   -0.5949 C.2       1 <0>         0.2282
      8 C6          1.8239   -4.7246   -0.8095 C.2       1 <0>        -0.2945
      9 S1          2.7220   -3.2193   -0.4897 S.3       1 <0>         0.1552
     10 C7          1.4260   -2.2222   -0.1114 C.2       1 <0>         0.3239
     11 N2          1.3734   -0.9497    0.2248 N.2       1 <0>        -0.5897
     12 C8         -0.5691   -5.2840   -0.7465 C.2       1 <0>        -0.4522
     13 C9         -0.3211   -6.5874   -0.9780 C.2       1 <0>         0.4907
     14 O1          0.9523   -7.0507   -0.9482 O.3       1 <0>        -0.7001
     15 N3         -1.3670   -7.4541   -1.2465 N.pl3     1 <0>        -0.7563
     16 C10        -1.0901   -8.8464   -1.6085 C.3       1 <0>         0.1226
     17 C11        -2.3997   -9.5491   -1.9720 C.3       1 <0>        -0.0183
     18 N4         -2.1220  -10.9452   -2.3350 N.4       1 <0>        -0.3893
     19 C12        -1.6843  -11.7082   -1.1381 C.3       1 <0>        -0.0080
     20 C13        -1.9802  -13.1784   -1.5273 C.3       1 <0>        -0.1449
     21 C14        -3.3026  -13.0667   -2.3203 C.3       1 <0>        -0.1440
     22 C15        -3.3592  -11.6059   -2.8043 C.3       1 <0>        -0.0075
     23 C16        -1.6412   -3.1500    1.1765 C.ar      1 <0>        -0.0653
     24 C17        -0.9587   -3.3677    2.3589 C.ar      1 <0>        -0.0795
     25 C18        -1.5611   -4.0700    3.3856 C.ar      1 <0>        -0.1109
     26 C19        -2.8474   -4.5552    3.2299 C.ar      1 <0>        -0.0324
     27 C20        -3.5299   -4.3369    2.0464 C.ar      1 <0>        -0.1137
     28 C21        -2.9285   -3.6296    1.0225 C.ar      1 <0>        -0.0647
     29 Cl1        -3.6044   -5.4379    4.5188 Cl        1 <0>        -0.0836
     30 C22        -2.1492   -0.2334    0.7296 C.2       1 <0>         0.5353
     31 O2         -2.1099    0.9450    1.0384 O.2       1 <0>        -0.5417
     32 O3         -3.3365   -0.8755    0.6639 O.3       1 <0>        -0.3529
     33 C23        -4.5049   -0.1116    0.9692 C.3       1 <0>         0.0965
     34 C24        -5.7247   -0.9878    0.8444 C.2       1 <0>        -0.1499
     35 C25        -6.6530   -0.9536    1.7681 C.2       1 <0>        -0.1759
     36 H2          1.3732    1.4964    0.8719 H         1 <0>         0.0672
     37 H3         -0.2398    1.7590    0.1666 H         1 <0>         0.0893
     38 H4         -0.0810    1.3056    1.8805 H         1 <0>         0.0886
     39 H5          2.2023   -5.6938   -1.0991 H         1 <0>         0.2325
     40 H6         -1.5878   -4.9330   -0.6723 H         1 <0>         0.0902
     41 H7         -2.2831   -7.1395   -1.1950 H         1 <0>         0.3895
     42 H8         -0.4145   -8.8721   -2.4636 H         1 <0>         0.0720
     43 H9         -0.6266   -9.3562   -0.7639 H         1 <0>         0.0669
     44 H10        -3.0752   -9.5234   -1.1170 H         1 <0>         0.1292
     45 H11        -2.8632   -9.0394   -2.8167 H         1 <0>         0.1308
     46 H12        -0.6188  -11.5647   -0.9588 H         1 <0>         0.1388
     47 H13        -2.2654  -11.4175   -0.2629 H         1 <0>         0.1336
     48 H14        -1.1854  -13.5782   -2.1571 H         1 <0>         0.0973
     49 H15        -2.1148  -13.7934   -0.6375 H         1 <0>         0.1146
     50 H16        -3.2918  -13.7472   -3.1717 H         1 <0>         0.1027
     51 H17        -4.1518  -13.2837   -1.6723 H         1 <0>         0.1016
     52 H18        -4.2304  -11.1074   -2.3794 H         1 <0>         0.1292
     53 H19        -3.4056  -11.5769   -3.8929 H         1 <0>         0.1306
     54 H20         0.0455   -2.9893    2.4802 H         1 <0>         0.1151
     55 H21        -1.0277   -4.2404    4.3091 H         1 <0>         0.1274
     56 H22        -4.5339   -4.7157    1.9242 H         1 <0>         0.1261
     57 H23        -3.4630   -3.4551    0.1004 H         1 <0>         0.1269
     58 H24        -4.4340    0.2694    1.9880 H         1 <0>         0.0664
     59 H25        -4.5849    0.7238    0.2737 H         1 <0>         0.0711
     60 H26        -5.8335   -1.6438   -0.0066 H         1 <0>         0.1156
     61 H27        -7.5271   -1.5815    1.6786 H         1 <0>         0.1045
     62 H28        -6.5442   -0.2976    2.6191 H         1 <0>         0.0985
     63 H29        -1.4132  -10.9843   -3.0521 H         1 <0>         0.4283
@<TRIPOS>BOND
     1    1    2 1
     2    1   36 1
     3    1   37 1
     4    1   38 1
     5    2   11 1
     6    2    3 2
     7    3    4 1
     8    3   30 1
     9    4    5 1
    10    4    6 1
    11    4   23 1
    12    6   10 1
    13    6    7 1
    14    7    8 2
    15    7   12 1
    16    8    9 1
    17    8   39 1
    18    9   10 1
    19   10   11 2
    20   12   13 2
    21   12   40 1
    22   13   14 1
    23   13   15 1
    24   15   16 1
    25   15   41 1
    26   16   17 1
    27   16   42 1
    28   16   43 1
    29   17   18 1
    30   17   44 1
    31   17   45 1
    32   18   22 1
    33   18   19 1
    34   18   63 1
    35   19   20 1
    36   19   46 1
    37   19   47 1
    38   20   21 1
    39   20   48 1
    40   20   49 1
    41   21   22 1
    42   21   50 1
    43   21   51 1
    44   22   52 1
    45   22   53 1
    46   23   28 ar
    47   23   24 ar
    48   24   25 ar
    49   24   54 1
    50   25   26 ar
    51   25   55 1
    52   26   27 ar
    53   26   29 1
    54   27   28 ar
    55   27   56 1
    56   28   57 1
    57   30   31 2
    58   30   32 1
    59   32   33 1
    60   33   34 1
    61   33   58 1
    62   33   59 1
    63   34   35 2
    64   34   60 1
    65   35   61 1
    66   35   62 1
@<TRIPOS>MOLECULE
ZINC39492092
   62    65     0     0     0
SMALL
USER_CHARGES

@<TRIPOS>ATOM
      1 C1          0.0338    0.9401   -0.7637 C.ar      1 <0>        -0.1169
      2 C2          1.1929    1.6892   -0.6845 C.ar      1 <0>        -0.1180
      3 C3          2.4168    1.0581   -0.5635 C.ar      1 <0>        -0.1035
      4 C4          2.4816   -0.3221   -0.5213 C.ar      1 <0>        -0.0715
      5 C5          1.3224   -1.0712   -0.5995 C.ar      1 <0>        -0.1046
      6 C6          0.0986   -0.4401   -0.7219 C.ar      1 <0>        -0.1181
      7 C7          3.8159   -1.0102   -0.3904 C.3       1 <0>        -0.0990
      8 C8          4.1413   -1.2018    1.0686 C.2       1 <0>         0.5166
      9 O1          3.3660   -0.8175    1.9183 O.2       1 <0>        -0.5103
     10 N1          5.2939   -1.8002    1.4290 N.am      1 <0>        -0.7247
     11 C9          5.6102   -1.9865    2.8472 C.3       1 <0>         0.2281
     12 H1          4.6860   -2.1001    3.4138 H         1 <0>         0.1202
     13 C10         6.3665   -0.7860    3.3551 C.ar      1 <0>        -0.1326
     14 C11         7.3264   -0.1871    2.5610 C.ar      1 <0>        -0.0932
     15 C12         8.0201    0.9141    3.0268 C.ar      1 <0>        -0.1184
     16 C13         7.7535    1.4167    4.2867 C.ar      1 <0>        -0.1030
     17 C14         6.7929    0.8183    5.0805 C.ar      1 <0>        -0.1031
     18 C15         6.0962   -0.2803    4.6129 C.ar      1 <0>        -0.0945
     19 C16         6.4702   -3.2405    3.0175 C.3       1 <0>        -0.6945
     20 H2          7.4321   -3.0907    2.5273 H         1 <0>         0.1639
     21 C17         5.7676   -4.4197    2.3956 C.2       1 <0>         0.4179
     22 O2          5.0104   -5.0945    3.0608 O.2       1 <0>        -0.3943
     23 C18         5.9996   -4.7517    0.9847 C.ar      1 <0>        -0.1910
     24 C19         6.9630   -4.0542    0.2457 C.ar      1 <0>        -0.0813
     25 C20         7.1751   -4.3718   -1.0770 C.ar      1 <0>        -0.1331
     26 C21         6.4393   -5.3789   -1.6821 C.ar      1 <0>        -0.0637
     27 C22         5.4857   -6.0751   -0.9668 C.ar      1 <0>        -0.1524
     28 C23         5.2609   -5.7750    0.3685 C.ar      1 <0>         0.1778
     29 O3          4.3288   -6.4622    1.0739 O.3       1 <0>        -0.4779
     30 S1          6.7346   -3.5570    4.7840 S.o2      1 <0>         2.6139
     31 O4          7.6502   -2.6112    5.3190 O.2       1 <0>        -0.9205
     32 O5          5.4927   -3.8072    5.4277 O.2       1 <0>        -0.8929
     33 O6          7.4741   -4.8862    4.8368 O.3       1 <0>        -0.6530
     34 C24         8.7835   -4.8047    4.4824 C.ar      1 <0>         0.0566
     35 C25         9.1558   -4.9678    3.1559 C.ar      1 <0>        -0.1348
     36 C26        10.4874   -4.8841    2.7982 C.ar      1 <0>        -0.0990
     37 C27        11.4490   -4.6384    3.7608 C.ar      1 <0>        -0.0972
     38 C28        11.0806   -4.4759    5.0836 C.ar      1 <0>        -0.0978
     39 C29         9.7497   -4.5526    5.4456 C.ar      1 <0>        -0.0849
     40 H3         -0.9228    1.4333   -0.8537 H         1 <0>         0.1222
     41 H4          1.1423    2.7675   -0.7175 H         1 <0>         0.1227
     42 H5          3.3225    1.6433   -0.5024 H         1 <0>         0.1192
     43 H6          1.3730   -2.1495   -0.5669 H         1 <0>         0.1178
     44 H7         -0.8070   -1.0253   -0.7835 H         1 <0>         0.1226
     45 H8          3.7740   -1.9812   -0.8838 H         1 <0>         0.1031
     46 H9          4.5876   -0.3983   -0.8574 H         1 <0>         0.1057
     47 H10         5.9140   -2.1076    0.7493 H         1 <0>         0.4008
     48 H11         7.5347   -0.5797    1.5767 H         1 <0>         0.1183
     49 H12         8.7706    1.3816    2.4066 H         1 <0>         0.1257
     50 H13         8.2959    2.2766    4.6509 H         1 <0>         0.1261
     51 H14         6.5848    1.2108    6.0649 H         1 <0>         0.1288
     52 H15         5.3431   -0.7455    5.2316 H         1 <0>         0.1224
     53 H16         7.5383   -3.2684    0.7124 H         1 <0>         0.1335
     54 H17         7.9184   -3.8333   -1.6462 H         1 <0>         0.1385
     55 H18         6.6130   -5.6202   -2.7204 H         1 <0>         0.1376
     56 H19         4.9169   -6.8579   -1.4465 H         1 <0>         0.1411
     57 H20         3.4440   -6.0737    1.0391 H         1 <0>         0.4003
     58 H21         8.4051   -5.1605    2.4037 H         1 <0>         0.1329
     59 H22        10.7777   -5.0110    1.7657 H         1 <0>         0.1413
     60 H23        12.4896   -4.5736    3.4792 H         1 <0>         0.1387
     61 H24        11.8336   -4.2844    5.8337 H         1 <0>         0.1428
     62 H25         9.4620   -4.4212    6.4782 H         1 <0>         0.1429
@<TRIPOS>BOND
     1    1    6 ar
     2    1    2 ar
     3    1   40 1
     4    2    3 ar
     5    2   41 1
     6    3    4 ar
     7    3   42 1
     8    4    5 ar
     9    4    7 1
    10    5    6 ar
    11    5   43 1
    12    6   44 1
    13    7    8 1
    14    7   45 1
    15    7   46 1
    16    8    9 2
    17    8   10 am
    18   10   11 1
    19   10   47 1
    20   11   12 1
    21   11   13 1
    22   11   19 1
    23   13   18 ar
    24   13   14 ar
    25   14   15 ar
    26   14   48 1
    27   15   16 ar
    28   15   49 1
    29   16   17 ar
    30   16   50 1
    31   17   18 ar
    32   17   51 1
    33   18   52 1
    34   19   20 1
    35   19   21 1
    36   19   30 1
    37   21   22 2
    38   21   23 1
    39   23   28 ar
    40   23   24 ar
    41   24   25 ar
    42   24   53 1
    43   25   26 ar
    44   25   54 1
    45   26   27 ar
    46   26   55 1
    47   27   28 ar
    48   27   56 1
    49   28   29 1
    50   29   57 1
    51   30   31 2
    52   30   32 2
    53   30   33 1
    54   33   34 1
    55   34   39 ar
    56   34   35 ar
    57   35   36 ar
    58   35   58 1
    59   36   37 ar
    60   36   59 1
    61   37   38 ar
    62   37   60 1
    63   38   39 ar
    64   38   61 1
    65   39   62 1
@<TRIPOS>MOLECULE
ZINC02935146
   52    54     0     0     0
SMALL
USER_CHARGES
N-[1-[(5-bromo-2-hydroxy-3-methoxy-phenyl)methyleneaminocarbamoyl]-2-phenyl-vinyl]benzamide
@<TRIPOS>ATOM
      1 C1         -9.1033   -7.6267   -1.0558 C.3       1 <0>         0.0213
      2 O1         -7.9772   -6.7562   -0.9294 O.3       1 <0>        -0.2991
      3 C2         -6.7499   -7.3391   -0.8687 C.ar      1 <0>         0.1057
      4 C3         -6.6344   -8.7192   -0.9297 C.ar      1 <0>        -0.1567
      5 C4         -5.3882   -9.3198   -0.8681 C.ar      1 <0>        -0.0663
      6 C5         -4.2496   -8.5500   -0.7463 C.ar      1 <0>        -0.0844
      7 C6         -4.3515   -7.1576   -0.6841 C.ar      1 <0>        -0.0387
      8 C7         -5.6125   -6.5514   -0.7407 C.ar      1 <0>         0.1333
      9 O2         -5.7229   -5.1983   -0.6758 O.3       1 <0>        -0.4564
     10 C8         -3.1381   -6.3316   -0.5535 C.2       1 <0>         0.0960
     11 N1         -3.2363   -5.0382   -0.4960 N.2       1 <0>        -0.1852
     12 N2         -2.0828   -4.2529   -0.3719 N.am      1 <0>        -0.5810
     13 C9         -2.1848   -2.9103   -0.3122 C.2       1 <0>         0.5675
     14 O3         -3.2790   -2.3801   -0.3662 O.2       1 <0>        -0.4641
     15 C10        -0.9747   -2.0865   -0.1819 C.2       1 <0>         0.0845
     16 C11         0.2421   -2.6761   -0.1219 C.2       1 <0>        -0.0666
     17 C12         1.4605   -1.8525   -0.1482 C.ar      1 <0>        -0.0763
     18 C13         1.4271   -0.5649   -0.6937 C.ar      1 <0>        -0.1089
     19 C14         2.5722    0.2031   -0.7093 C.ar      1 <0>        -0.1203
     20 C15         3.7552   -0.3013   -0.1975 C.ar      1 <0>        -0.1043
     21 C16         3.7978   -1.5766    0.3388 C.ar      1 <0>        -0.1219
     22 C17         2.6600   -2.3549    0.3671 C.ar      1 <0>        -0.0947
     23 N3         -1.0805   -0.6944   -0.1201 N.am      1 <0>        -0.6631
     24 C18        -1.6925   -0.0202   -1.1137 C.2       1 <0>         0.5602
     25 O4         -2.2343   -0.6277   -2.0167 O.2       1 <0>        -0.4956
     26 C19        -1.7049    1.4578   -1.1057 C.ar      1 <0>        -0.1370
     27 C20        -1.1859    2.1573   -0.0148 C.ar      1 <0>        -0.0859
     28 C21        -1.1967    3.5368   -0.0156 C.ar      1 <0>        -0.1254
     29 C22        -1.7291    4.2269   -1.0902 C.ar      1 <0>        -0.0896
     30 C23        -2.2500    3.5397   -2.1722 C.ar      1 <0>        -0.1256
     31 C24        -2.2410    2.1603   -2.1863 C.ar      1 <0>        -0.0555
     32 Br1        -5.2461  -11.2036   -0.9519 Br        1 <0>        -0.0357
     33 H1         -9.0105   -8.2101   -1.9718 H         1 <0>         0.0585
     34 H2         -9.1406   -8.2994   -0.1989 H         1 <0>         0.0588
     35 H3        -10.0178   -7.0348   -1.0930 H         1 <0>         0.1060
     36 H4         -7.5207   -9.3289   -1.0254 H         1 <0>         0.1450
     37 H5         -3.2800   -9.0233   -0.6994 H         1 <0>         0.1453
     38 H6         -5.6927   -4.7594   -1.5370 H         1 <0>         0.3944
     39 H7         -2.1671   -6.8021   -0.5056 H         1 <0>         0.1282
     40 H8         -1.2107   -4.6754   -0.3288 H         1 <0>         0.3830
     41 H9          0.3184   -3.7513   -0.0547 H         1 <0>         0.1408
     42 H10         0.5059   -0.1716   -1.0974 H         1 <0>         0.1343
     43 H11         2.5472    1.1989   -1.1264 H         1 <0>         0.1258
     44 H12         4.6497    0.3036   -0.2164 H         1 <0>         0.1251
     45 H13         4.7246   -1.9629    0.7365 H         1 <0>         0.1271
     46 H14         2.6948   -3.3496    0.7862 H         1 <0>         0.1279
     47 H15        -0.7134   -0.2133    0.6381 H         1 <0>         0.4147
     48 H16        -0.7735    1.6198    0.8262 H         1 <0>         0.1243
     49 H17        -0.7924    4.0793    0.8262 H         1 <0>         0.1310
     50 H18        -1.7386    5.3069   -1.0842 H         1 <0>         0.1295
     51 H19        -2.6641    4.0844   -3.0078 H         1 <0>         0.1324
     52 H20        -2.6482    1.6250   -3.0314 H         1 <0>         0.1374
@<TRIPOS>BOND
     1    1    2 1
     2    1   33 1
     3    1   34 1
     4    1   35 1
     5    2    3 1
     6    3    8 ar
     7    3    4 ar
     8    4    5 ar
     9    4   36 1
    10    5    6 ar
    11    5   32 1
    12    6    7 ar
    13    6   37 1
    14    7    8 ar
    15    7   10 1
    16    8    9 1
    17    9   38 1
    18   10   11 2
    19   10   39 1
    20   11   12 1
    21   12   13 am
    22   12   40 1
    23   13   14 2
    24   13   15 1
    25   15   16 2
    26   15   23 1
    27   16   17 1
    28   16   41 1
    29   17   22 ar
    30   17   18 ar
    31   18   19 ar
    32   18   42 1
    33   19   20 ar
    34   19   43 1
    35   20   21 ar
    36   20   44 1
    37   21   22 ar
    38   21   45 1
    39   22   46 1
    40   23   24 am
    41   23   47 1
    42   24   25 2
    43   24   26 1
    44   26   31 ar
    45   26   27 ar
    46   27   28 ar
    47   27   48 1
    48   28   29 ar
    49   28   49 1
    50   29   30 ar
    51   29   50 1
    52   30   31 ar
    53   30   51 1
    54   31   52 1
@<TRIPOS>MOLECULE
ZINC14668019
   50    51     0     0     0
SMALL
USER_CHARGES
4-[N'-(5-bromo-2-isopropoxy-benzoyl)hydrazino]-N-(2,4-dichlorophenyl)-4-oxo-butanamide
@<TRIPOS>ATOM
      1 C1          0.9771    3.3154   -1.5644 C.3       1 <0>        -0.1764
      2 C2          0.6612    2.8910   -0.1287 C.3       1 <0>         0.0657
      3 C3          0.4011    4.1337    0.7250 C.3       1 <0>        -0.1508
      4 O1         -0.4996    2.0576   -0.1229 O.3       1 <0>        -0.2689
      5 C4         -0.2955    0.7169   -0.1623 C.ar      1 <0>         0.2139
      6 C5          0.9864    0.2120   -0.3221 C.ar      1 <0>        -0.2161
      7 C6          1.1931   -1.1523   -0.3617 C.ar      1 <0>        -0.0148
      8 C7          0.1243   -2.0271   -0.2428 C.ar      1 <0>        -0.1409
      9 C8         -1.1565   -1.5422   -0.0843 C.ar      1 <0>        -0.0160
     10 C9         -1.3782   -0.1636   -0.0360 C.ar      1 <0>        -0.1668
     11 C10        -2.7453    0.3622    0.1410 C.2       1 <0>         0.5669
     12 O2         -2.9350    1.5626    0.1776 O.2       1 <0>        -0.5093
     13 N1         -3.7839   -0.4882    0.2621 N.am      1 <0>        -0.5253
     14 N2         -5.0821    0.0111    0.4302 N.am      1 <0>        -0.5178
     15 C11        -6.1207   -0.8392    0.5513 C.2       1 <0>         0.5165
     16 O3         -5.9315   -2.0367    0.5148 O.2       1 <0>        -0.5394
     17 C12        -7.5171   -0.3022    0.7321 C.3       1 <0>        -0.1160
     18 C13        -8.5016   -1.4681    0.8430 C.3       1 <0>        -0.1244
     19 C14        -9.8980   -0.9311    1.0238 C.2       1 <0>         0.5192
     20 O4        -10.0872    0.2664    1.0603 O.2       1 <0>        -0.5125
     21 N3        -10.9366   -1.7814    1.1449 N.am      1 <0>        -0.6681
     22 C15       -12.2454   -1.2859    1.1913 C.ar      1 <0>         0.1669
     23 C16       -12.5440   -0.0557    0.6211 C.ar      1 <0>        -0.1093
     24 C17       -13.8358    0.4308    0.6677 C.ar      1 <0>        -0.0805
     25 C18       -14.8330   -0.3068    1.2817 C.ar      1 <0>        -0.0445
     26 C19       -14.5391   -1.5331    1.8510 C.ar      1 <0>        -0.0789
     27 C20       -13.2490   -2.0271    1.8030 C.ar      1 <0>        -0.0615
     28 Cl1       -12.8818   -3.5688    2.5115 Cl        1 <0>        -0.0503
     29 Cl2       -16.4554    0.3082    1.3382 Cl        1 <0>        -0.0551
     30 Br1         0.4243   -3.8933   -0.2990 Br        1 <0>        -0.0361
     31 H1          1.1624    2.4301   -2.1726 H         1 <0>         0.0616
     32 H2          0.1314    3.8675   -1.9745 H         1 <0>         0.0712
     33 H3          1.8625    3.9511   -1.5688 H         1 <0>         0.0763
     34 H4          1.5069    2.3390    0.2813 H         1 <0>         0.0793
     35 H5          0.1760    3.8314    1.7477 H         1 <0>         0.0654
     36 H6          1.2865    4.7694    0.7205 H         1 <0>         0.0786
     37 H7         -0.4446    4.6858    0.3149 H         1 <0>         0.0708
     38 H8          1.8242    0.8872   -0.4154 H         1 <0>         0.1503
     39 H9          2.1933   -1.5405   -0.4856 H         1 <0>         0.1441
     40 H10        -1.9865   -2.2270    0.0080 H         1 <0>         0.1423
     41 H11        -3.6326   -1.4459    0.2330 H         1 <0>         0.4298
     42 H12        -5.2334    0.9688    0.4593 H         1 <0>         0.4353
     43 H13        -7.5608    0.2979    1.6409 H         1 <0>         0.1122
     44 H14        -7.7822    0.3168   -0.1251 H         1 <0>         0.1122
     45 H15        -8.4579   -2.0683   -0.0658 H         1 <0>         0.1126
     46 H16        -8.2366   -2.0871    1.7002 H         1 <0>         0.1113
     47 H17       -10.7774   -2.7367    1.1999 H         1 <0>         0.4178
     48 H18       -11.7666    0.5203    0.1411 H         1 <0>         0.1648
     49 H19       -14.0681    1.3877    0.2242 H         1 <0>         0.1454
     50 H20       -15.3191   -2.1067    2.3295 H         1 <0>         0.1491
@<TRIPOS>BOND
     1    1    2 1
     2    1   31 1
     3    1   32 1
     4    1   33 1
     5    2    3 1
     6    2    4 1
     7    2   34 1
     8    3   35 1
     9    3   36 1
    10    3   37 1
    11    4    5 1
    12    5   10 ar
    13    5    6 ar
    14    6    7 ar
    15    6   38 1
    16    7    8 ar
    17    7   39 1
    18    8    9 ar
    19    8   30 1
    20    9   10 ar
    21    9   40 1
    22   10   11 1
    23   11   12 2
    24   11   13 am
    25   13   14 1
    26   13   41 1
    27   14   15 am
    28   14   42 1
    29   15   16 2
    30   15   17 1
    31   17   18 1
    32   17   43 1
    33   17   44 1
    34   18   19 1
    35   18   45 1
    36   18   46 1
    37   19   20 2
    38   19   21 am
    39   21   22 1
    40   21   47 1
    41   22   27 ar
    42   22   23 ar
    43   23   24 ar
    44   23   48 1
    45   24   25 ar
    46   24   49 1
    47   25   26 ar
    48   25   29 1
    49   26   27 ar
    50   26   50 1
    51   27   28 1
@<TRIPOS>MOLECULE
ZINC21077576
   54    57     0     0     0
SMALL
USER_CHARGES
N-benzhydryl-2-[[5-[(N'E)-N'-[(2-fluorophenyl)methylene]hydrazino]-4H-1,2,4-triazol-3-yl]sulfanyl]acetamide
@<TRIPOS>ATOM
      1 C1          6.4687   -6.1903   -4.1068 C.ar      1 <0>        -0.1175
      2 C2          6.1157   -7.0549   -3.0876 C.ar      1 <0>        -0.1175
      3 C3          6.0428   -6.5956   -1.7858 C.ar      1 <0>        -0.1009
      4 C4          6.3223   -5.2716   -1.5033 C.ar      1 <0>        -0.0903
      5 C5          6.6697   -4.4057   -2.5232 C.ar      1 <0>        -0.1027
      6 C6          6.7477   -4.8662   -3.8243 C.ar      1 <0>        -0.1209
      7 C7          6.2423   -4.7709   -0.0842 C.3       1 <0>         0.2333
      8 C8          7.6283   -4.7036    0.5036 C.ar      1 <0>        -0.0857
      9 C9          8.4549   -3.6366    0.2046 C.ar      1 <0>        -0.1118
     10 C10         9.7245   -3.5725    0.7477 C.ar      1 <0>        -0.1146
     11 C11        10.1712   -4.5803    1.5817 C.ar      1 <0>        -0.1164
     12 C12         9.3467   -5.6501    1.8762 C.ar      1 <0>        -0.1137
     13 C13         8.0752   -5.7116    1.3373 C.ar      1 <0>        -0.1040
     14 N1          5.6409   -3.4351   -0.0708 N.am      1 <0>        -0.7295
     15 C14         4.3000   -3.2999   -0.0574 C.2       1 <0>         0.5415
     16 O1          3.5913   -4.2841   -0.0563 O.2       1 <0>        -0.5172
     17 C15         3.6813   -1.9259   -0.0437 C.3       1 <0>        -0.1632
     18 S1          1.8736   -2.0768   -0.0275 S.3       1 <0>         0.1136
     19 C16         1.3067   -0.4086   -0.0126 C.2       1 <0>         0.2092
     20 N2          0.0021   -0.0041    0.0020 N.2       1 <0>        -0.5508
     21 C17        -0.0165    1.3631    0.0095 C.2       1 <0>         0.5395
     22 N3          1.2247    1.7851   -0.0000 N.pl3     1 <0>        -0.4743
     23 N4          2.0634    0.6629   -0.0141 N.2       1 <0>        -0.3279
     24 N5         -1.1498    2.1632    0.0195 N.pl3     1 <0>        -0.5571
     25 N6         -1.0223    3.5584    0.0265 N.2       1 <0>        -0.2349
     26 C18        -2.0831    4.3073    0.0358 C.2       1 <0>         0.1100
     27 C19        -1.9490    5.7753    0.0431 C.ar      1 <0>        -0.0891
     28 C20        -3.0879    6.5844    0.0473 C.ar      1 <0>        -0.0601
     29 C21        -2.9549    7.9571    0.0581 C.ar      1 <0>        -0.1323
     30 C22        -1.6973    8.5350    0.0554 C.ar      1 <0>        -0.0722
     31 C23        -0.5639    7.7423    0.0464 C.ar      1 <0>        -0.1593
     32 C24        -0.6805    6.3654    0.0400 C.ar      1 <0>         0.1333
     33 F1          0.4269    5.5916    0.0303 F         1 <0>        -0.1235
     34 H1          6.5260   -6.5491   -5.1238 H         1 <0>         0.1216
     35 H2          5.8974   -8.0893   -3.3083 H         1 <0>         0.1235
     36 H3          5.7671   -7.2711   -0.9895 H         1 <0>         0.1222
     37 H4          6.8837   -3.3702   -2.3031 H         1 <0>         0.1163
     38 H5          7.0231   -4.1906   -4.6206 H         1 <0>         0.1213
     39 H6          5.6055   -5.4355    0.5182 H         1 <0>         0.1070
     40 H7          8.1073   -2.8513   -0.4503 H         1 <0>         0.1199
     41 H8         10.3687   -2.7369    0.5173 H         1 <0>         0.1245
     42 H9         11.1645   -4.5320    2.0030 H         1 <0>         0.1237
     43 H10         9.6959   -6.4376    2.5275 H         1 <0>         0.1255
     44 H11         7.4311   -6.5474    1.5674 H         1 <0>         0.1250
     45 H12         6.2837   -2.5425   -0.0717 H         1 <0>         0.4221
     46 H13         4.0120   -1.3838    0.8545 H         1 <0>         0.1236
     47 H14         3.9951   -1.3735   -0.9417 H         1 <0>         0.1229
     48 H15        -2.1485    1.7022    0.0219 H         1 <0>         0.4381
     49 H16        -3.0818    3.8463    0.0382 H         1 <0>         0.1380
     50 H17        -4.0703    6.1359    0.0452 H         1 <0>         0.1409
     51 H18        -3.8350    8.5831    0.0644 H         1 <0>         0.1372
     52 H19        -1.6004    9.6107    0.0601 H         1 <0>         0.1374
     53 H20         0.4141    8.2004    0.0441 H         1 <0>         0.1403
     54 H21         1.4388    2.8641    0.0039 H         1 <0>         0.4760
@<TRIPOS>BOND
     1    1    6 ar
     2    1    2 ar
     3    1   34 1
     4    2    3 ar
     5    2   35 1
     6    3    4 ar
     7    3   36 1
     8    4    5 ar
     9    4    7 1
    10    5    6 ar
    11    5   37 1
    12    6   38 1
    13    7    8 1
    14    7   14 1
    15    7   39 1
    16    8   13 ar
    17    8    9 ar
    18    9   10 ar
    19    9   40 1
    20   10   11 ar
    21   10   41 1
    22   11   12 ar
    23   11   42 1
    24   12   13 ar
    25   12   43 1
    26   13   44 1
    27   14   15 am
    28   14   45 1
    29   15   16 2
    30   15   17 1
    31   17   18 1
    32   17   46 1
    33   17   47 1
    34   18   19 1
    35   19   23 2
    36   19   20 1
    37   20   21 2
    38   21   22 1
    39   21   24 1
    40   22   23 1
    41   22   54 1
    42   24   25 1
    43   24   48 1
    44   25   26 2
    45   26   27 1
    46   26   49 1
    47   27   32 ar
    48   27   28 ar
    49   28   29 ar
    50   28   50 1
    51   29   30 ar
    52   29   51 1
    53   30   31 ar
    54   30   52 1
    55   31   32 ar
    56   31   53 1
    57   32   33 1
@<TRIPOS>MOLECULE
ZINC30881085
   70    72     0     0     0
SMALL
USER_CHARGES
2-[(1S,4S,5S)-5-isopropyl-4-[[(3-methoxyphenyl)carbamoylamino]methyl]-2-methyl-cyclohex-2-en-1-yl]-N-(2-pyridylmethyl)acetamide
@<TRIPOS>ATOM
      1 C1         -3.8364    0.9561   -0.1070 C.3       1 <0>        -0.1243
      2 C2         -2.3555    1.1757    0.0650 C.2       1 <0>        -0.1129
      3 C3         -1.9004    1.3300    1.2669 C.2       1 <0>        -0.1530
      4 C4         -0.4508    1.5658    1.5981 C.3       1 <0>        -0.0652
      5 H1         -0.3202    2.6341    1.8254 H         1 <0>         0.0909
      6 C5          0.4254    1.1800    0.4044 C.3       1 <0>        -0.0749
      7 H2          0.4368    0.0865    0.2857 H         1 <0>         0.0735
      8 C6         -0.1456    1.8416   -0.8562 C.3       1 <0>        -0.1147
      9 C7         -1.5001    1.2012   -1.1677 C.3       1 <0>        -0.0311
     10 H3         -2.0225    1.7959   -1.9316 H         1 <0>         0.0855
     11 C8         -1.2824   -0.2297   -1.6637 C.3       1 <0>        -0.1330
     12 C9         -0.5847   -0.1978   -2.9991 C.2       1 <0>         0.5172
     13 O1         -0.2426    0.8620   -3.4794 O.2       1 <0>        -0.5366
     14 N1         -0.3409   -1.3470   -3.6597 N.am      1 <0>        -0.7363
     15 C10         0.3374   -1.3160   -4.9578 C.3       1 <0>         0.1746
     16 C11         0.4869   -2.7216   -5.4802 C.ar      1 <0>         0.1063
     17 C12        -0.4563   -3.2299   -6.3535 C.ar      1 <0>        -0.1543
     18 C13        -0.3091   -4.5239   -6.8285 C.ar      1 <0>        -0.0753
     19 C14         0.7861   -5.2617   -6.4054 C.ar      1 <0>        -0.1655
     20 C15         1.6881   -4.6867   -5.5306 C.ar      1 <0>         0.1006
     21 N2          1.5189   -3.4506   -5.1031 N.ar      1 <0>        -0.4698
     22 C16         1.8566    1.6679    0.6379 C.3       1 <0>        -0.0937
     23 C17         2.7547    1.1769   -0.4992 C.3       1 <0>        -0.1505
     24 C18         1.8740    3.1973    0.6776 C.3       1 <0>        -0.1526
     25 C19        -0.0567    0.7203    2.8108 C.3       1 <0>         0.1500
     26 N3         -0.8624    1.1197    3.9673 N.am      1 <0>        -0.7494
     27 C20        -0.6871    0.5068    5.1548 C.2       1 <0>         0.7044
     28 O2          0.1397   -0.3777    5.2662 O.2       1 <0>        -0.5734
     29 N4         -1.4284    0.8742    6.2187 N.am      1 <0>        -0.6993
     30 C21        -1.1775    0.3103    7.4746 C.ar      1 <0>         0.2126
     31 C22        -2.2264    0.0820    8.3566 C.ar      1 <0>        -0.1877
     32 C23        -1.9793   -0.4787    9.5945 C.ar      1 <0>        -0.0595
     33 C24        -0.6877   -0.8050    9.9628 C.ar      1 <0>        -0.2292
     34 C25         0.3644   -0.5744    9.0880 C.ar      1 <0>         0.1475
     35 C26         0.1197   -0.0163    7.8428 C.ar      1 <0>        -0.1582
     36 O3          1.6339   -0.8949    9.4518 O.3       1 <0>        -0.3152
     37 C27         1.8123   -1.4664   10.7494 C.3       1 <0>         0.0241
     38 H4         -4.3250    0.9629    0.8785 H         1 <0>         0.0602
     39 H5         -4.0089   -0.0145   -0.5950 H         1 <0>         0.0637
     40 H6         -4.2563    1.7596   -0.7300 H         1 <0>         0.0655
     41 H7         -2.5882    1.2923    2.1245 H         1 <0>         0.1052
     42 H8         -0.2714    2.9200   -0.6794 H         1 <0>         0.0671
     43 H9          0.5461    1.6862   -1.6973 H         1 <0>         0.0919
     44 H10        -0.6628   -0.7786   -0.9393 H         1 <0>         0.0978
     45 H11        -2.2548   -0.7329   -1.7700 H         1 <0>         0.0924
     46 H12        -0.6513   -2.3082   -3.2241 H         1 <0>         0.4213
     47 H13        -0.2568   -0.7222   -5.6679 H         1 <0>         0.0826
     48 H14         1.3318   -0.8605   -4.8411 H         1 <0>         0.0847
     49 H15        -1.2970   -2.6263   -6.6622 H         1 <0>         0.1368
     50 H16        -1.0302   -4.9472   -7.5121 H         1 <0>         0.1376
     51 H17         0.9322   -6.2731   -6.7549 H         1 <0>         0.1380
     52 H18         2.5437   -5.2547   -5.1963 H         1 <0>         0.1592
     53 H19         2.2274    1.2721    1.5949 H         1 <0>         0.0711
     54 H20         3.7837    1.5277   -0.3313 H         1 <0>         0.0536
     55 H21         2.3839    1.5727   -1.4562 H         1 <0>         0.0603
     56 H22         2.7422    0.0773   -0.5276 H         1 <0>         0.0521
     57 H23         2.9030    3.5480    0.8455 H         1 <0>         0.0526
     58 H24         1.2283    3.5502    1.4952 H         1 <0>         0.0544
     59 H25         1.5032    3.5932   -0.2794 H         1 <0>         0.0601
     60 H26        -0.2340   -0.3426    2.5899 H         1 <0>         0.0657
     61 H27         1.0089    0.8753    3.0352 H         1 <0>         0.0703
     62 H28        -1.6105    1.9198    3.8665 H         1 <0>         0.4149
     63 H29        -2.2307    1.6173    6.0998 H         1 <0>         0.4296
     64 H30        -3.2360    0.3395    8.0726 H         1 <0>         0.1259
     65 H31        -2.7963   -0.6585   10.2775 H         1 <0>         0.1284
     66 H32        -0.4971   -1.2398   10.9329 H         1 <0>         0.1279
     67 H33         0.9374    0.1643    7.1607 H         1 <0>         0.1415
     68 H34         2.8795   -1.6762   10.9141 H         1 <0>         0.1019
     69 H35         1.2394   -2.4028   10.8195 H         1 <0>         0.0569
     70 H36         1.4553   -0.7601   11.5134 H         1 <0>         0.0568
@<TRIPOS>BOND
     1    1    2 1
     2    1   38 1
     3    1   39 1
     4    1   40 1
     5    2    9 1
     6    2    3 2
     7    3    4 1
     8    3   41 1
     9    4    5 1
    10    4    6 1
    11    4   25 1
    12    6    7 1
    13    6    8 1
    14    6   22 1
    15    8    9 1
    16    8   42 1
    17    8   43 1
    18    9   10 1
    19    9   11 1
    20   11   12 1
    21   11   44 1
    22   11   45 1
    23   12   13 2
    24   12   14 am
    25   14   15 1
    26   14   46 1
    27   15   16 1
    28   15   47 1
    29   15   48 1
    30   16   21 ar
    31   16   17 ar
    32   17   18 ar
    33   17   49 1
    34   18   19 ar
    35   18   50 1
    36   19   20 ar
    37   19   51 1
    38   20   21 ar
    39   20   52 1
    40   22   23 1
    41   22   24 1
    42   22   53 1
    43   23   54 1
    44   23   55 1
    45   23   56 1
    46   24   57 1
    47   24   58 1
    48   24   59 1
    49   25   26 1
    50   25   60 1
    51   25   61 1
    52   26   27 am
    53   26   62 1
    54   27   28 2
    55   27   29 am
    56   29   30 1
    57   29   63 1
    58   30   35 ar
    59   30   31 ar
    60   31   32 ar
    61   31   64 1
    62   32   33 ar
    63   32   65 1
    64   33   34 ar
    65   33   66 1
    66   34   35 ar
    67   34   36 1
    68   35   67 1
    69   36   37 1
    70   37   68 1
    71   37   69 1
    72   37   70 1
@<TRIPOS>MOLECULE
ZINC02985244
   50    53     0     0     0
SMALL
USER_CHARGES

@<TRIPOS>ATOM
      1 C1         -1.1318    1.4210   -0.5953 C.3       1 <0>        -0.1538
      2 C2         -1.1265   -0.1075   -0.6628 C.3       1 <0>         0.0490
      3 O1         -0.1172   -0.5405   -1.5770 O.3       1 <0>        -0.2969
      4 C3          0.0204   -1.8791   -1.7542 C.ar      1 <0>         0.1769
      5 C4         -0.8059   -2.7582   -1.0642 C.ar      1 <0>        -0.2044
      6 C5         -0.6698   -4.1169   -1.2409 C.ar      1 <0>        -0.0024
      7 C6          0.3011   -4.6125   -2.1159 C.ar      1 <0>        -0.1684
      8 C7          1.1304   -3.7260   -2.8083 C.ar      1 <0>        -0.0412
      9 C8          0.9841   -2.3673   -2.6303 C.ar      1 <0>        -0.0791
     10 Cl1         2.0081   -1.2642   -3.4952 Cl        1 <0>        -0.0426
     11 C9          0.4503   -6.0676   -2.3075 C.2       1 <0>         0.5425
     12 O2         -0.2716   -6.8373   -1.7042 O.2       1 <0>        -0.3982
     13 N1          1.3870   -6.5436   -3.1516 N.am      1 <0>        -0.6387
     14 C10         1.5233   -7.8730   -3.3267 C.2       1 <0>         0.5095
     15 S1          0.5065   -8.9570   -2.4769 S.2       1 <0>        -0.4690
     16 N2          2.4600   -8.3490   -4.1708 N.pl3     1 <0>        -0.6229
     17 C11         2.6609   -9.7253   -4.2859 C.ar      1 <0>         0.1598
     18 C12         1.5674  -10.5782   -4.4084 C.ar      1 <0>        -0.0808
     19 C13         1.7581  -11.9366   -4.5223 C.ar      1 <0>        -0.0599
     20 C14         3.0524  -12.4631   -4.5153 C.ar      1 <0>        -0.0517
     21 C15         4.1532  -11.6035   -4.3919 C.ar      1 <0>         0.1696
     22 C16         3.9511  -10.2389   -4.2837 C.ar      1 <0>        -0.1505
     23 O3          5.4135  -12.1079   -4.3844 O.3       1 <0>        -0.4691
     24 C17         3.2600  -13.9183   -4.6367 C.2       1 <0>         0.2914
     25 N3          4.4273  -14.5136   -4.6354 N.2       1 <0>        -0.4476
     26 C18         4.2347  -15.8518   -4.7647 C.ar      1 <0>         0.0218
     27 C19         5.0976  -16.9489   -4.8231 C.ar      1 <0>        -0.0599
     28 C20         4.5806  -18.2176   -4.9617 C.ar      1 <0>        -0.1193
     29 C21         3.2098  -18.4122   -5.0440 C.ar      1 <0>        -0.0914
     30 C22         2.3456  -17.3380   -4.9881 C.ar      1 <0>        -0.0932
     31 C23         2.8476  -16.0538   -4.8479 C.ar      1 <0>         0.0105
     32 O4          2.2774  -14.8311   -4.7594 O.3       1 <0>        -0.2084
     33 H1         -0.1580    1.7730   -0.2549 H         1 <0>         0.0690
     34 H2         -1.3394    1.8277   -1.5851 H         1 <0>         0.0689
     35 H3         -1.9016    1.7513    0.1020 H         1 <0>         0.0832
     36 H4         -0.9189   -0.5142    0.3270 H         1 <0>         0.0697
     37 H5         -2.1003   -0.4595   -1.0032 H         1 <0>         0.0696
     38 H6         -1.5557   -2.3749   -0.3879 H         1 <0>         0.1496
     39 H7         -1.3123   -4.7989   -0.7038 H         1 <0>         0.1520
     40 H8          1.8820   -4.1049   -3.4850 H         1 <0>         0.1387
     41 H9          1.9630   -5.9294   -3.6331 H         1 <0>         0.4099
     42 H10         2.9945   -7.7350   -4.6983 H         1 <0>         0.4112
     43 H11         0.5664  -10.1728   -4.4136 H         1 <0>         0.1578
     44 H12         0.9075  -12.5954   -4.6168 H         1 <0>         0.1448
     45 H13         4.7969   -9.5734   -4.1929 H         1 <0>         0.1434
     46 H14         5.8155  -12.1751   -5.2613 H         1 <0>         0.3955
     47 H15         6.1658  -16.8025   -4.7602 H         1 <0>         0.1375
     48 H16         5.2468  -19.0664   -5.0070 H         1 <0>         0.1389
     49 H17         2.8159  -19.4119   -5.1529 H         1 <0>         0.1420
     50 H18         1.2794  -17.4977   -5.0535 H         1 <0>         0.1367
@<TRIPOS>BOND
     1    1    2 1
     2    1   33 1
     3    1   34 1
     4    1   35 1
     5    2    3 1
     6    2   36 1
     7    2   37 1
     8    3    4 1
     9    4    9 ar
    10    4    5 ar
    11    5    6 ar
    12    5   38 1
    13    6    7 ar
    14    6   39 1
    15    7    8 ar
    16    7   11 1
    17    8    9 ar
    18    8   40 1
    19    9   10 1
    20   11   12 2
    21   11   13 am
    22   13   14 1
    23   13   41 1
    24   14   15 2
    25   14   16 1
    26   16   17 1
    27   16   42 1
    28   17   22 ar
    29   17   18 ar
    30   18   19 ar
    31   18   43 1
    32   19   20 ar
    33   19   44 1
    34   20   21 ar
    35   20   24 1
    36   21   22 ar
    37   21   23 1
    38   22   45 1
    39   23   46 1
    40   24   32 1
    41   24   25 2
    42   25   26 1
    43   26   31 ar
    44   26   27 ar
    45   27   28 ar
    46   27   47 1
    47   28   29 ar
    48   28   48 1
    49   29   30 ar
    50   29   49 1
    51   30   31 ar
    52   30   50 1
    53   31   32 1
@<TRIPOS>MOLECULE
ZINC09816950
   57    60     0     0     0
SMALL
USER_CHARGES
N-(3-chloro-4-methyl-phenyl)-2-[[5-(4-methylpiperazin-1-yl)-4-oxo-3,5-diazabicyclo[4.3.0]nona-2,10-dien-2-yl]sulfanyl]acetamide
@<TRIPOS>ATOM
      1 C1          2.4933    1.0515   -0.0399 C.3       1 <0>        -0.1224
      2 C2          1.1783    1.7872   -0.0174 C.ar      1 <0>        -0.0828
      3 C3          1.0441    2.9378    0.7377 C.ar      1 <0>        -0.0881
      4 C4         -0.1611    3.6115    0.7647 C.ar      1 <0>        -0.1316
      5 C5         -1.2368    3.1384    0.0240 C.ar      1 <0>         0.1442
      6 C6         -1.1002    1.9828   -0.7331 C.ar      1 <0>        -0.1079
      7 C7          0.1072    1.3097   -0.7521 C.ar      1 <0>        -0.0192
      8 Cl1         0.2799   -0.1352   -1.6987 Cl        1 <0>        -0.0557
      9 N1         -2.4573    3.8224    0.0451 N.am      1 <0>        -0.6620
     10 C8         -3.6148    3.1385   -0.0488 C.2       1 <0>         0.5298
     11 O1         -3.6038    1.9257   -0.0552 O.2       1 <0>        -0.4986
     12 C9         -4.9228    3.8806   -0.1459 C.3       1 <0>        -0.1627
     13 S1         -6.2836    2.6925   -0.2586 S.3       1 <0>         0.1175
     14 C10        -7.6499    3.8008   -0.3580 C.2       1 <0>         0.2427
     15 C11        -8.9649    3.2975   -0.4689 C.2       1 <0>        -0.2231
     16 C12        -9.9958    4.1691   -0.5382 C.2       1 <0>         0.2236
     17 N2         -9.7367    5.5097   -0.5095 N.am      1 <0>        -0.3668
     18 C13        -8.4728    5.9581   -0.4092 C.2       1 <0>         0.6346
     19 O2         -8.2624    7.1595   -0.3860 O.2       1 <0>        -0.5497
     20 N3         -7.4475    5.1121   -0.3344 N.2       1 <0>        -0.5580
     21 N4        -10.7688    6.4015   -0.5838 N.3       1 <0>        -0.3054
     22 C14       -10.6778    7.2117   -1.8065 C.3       1 <0>        -0.0062
     23 C15       -11.8915    8.1402   -1.8915 C.3       1 <0>         0.0126
     24 C16       -12.0256    8.1862    0.5249 C.3       1 <0>         0.0125
     25 C17       -10.8118    7.2577    0.6099 C.3       1 <0>        -0.0086
     26 C18       -13.0445    9.9554   -0.7777 C.3       1 <0>        -0.0404
     27 C19       -11.3066    3.4217   -0.6445 C.3       1 <0>        -0.0751
     28 C20       -10.9838    1.9802   -0.1940 C.3       1 <0>        -0.1173
     29 C21        -9.4764    1.8751   -0.5133 C.3       1 <0>        -0.0695
     30 H1          2.5089    0.3107    0.7596 H         1 <0>         0.0784
     31 H2          2.6135    0.5514   -1.0009 H         1 <0>         0.0753
     32 H3          3.3086    1.7602    0.1054 H         1 <0>         0.0736
     33 H4          1.8816    3.3076    1.3106 H         1 <0>         0.1398
     34 H5         -0.2660    4.5078    1.3580 H         1 <0>         0.1341
     35 H6         -1.9362    1.6099   -1.3062 H         1 <0>         0.1454
     36 H7         -2.4703    4.7888    0.1273 H         1 <0>         0.4173
     37 H8         -5.0549    4.5014    0.7403 H         1 <0>         0.1345
     38 H9         -4.9172    4.5120   -1.0343 H         1 <0>         0.1355
     39 H10        -9.7654    7.8074   -1.7810 H         1 <0>         0.0965
     40 H11       -10.6601    6.5558   -2.6768 H         1 <0>         0.1266
     41 H12       -12.8025    7.5440   -1.9444 H         1 <0>         0.1429
     42 H13       -11.8120    8.7626   -2.7828 H         1 <0>         0.1436
     43 H14       -12.9380    7.5905    0.4994 H         1 <0>         0.1424
     44 H15       -12.0435    8.8419    1.3954 H         1 <0>         0.1436
     45 H16       -10.8918    6.6353    1.5011 H         1 <0>         0.1263
     46 H17        -9.9009    7.8539    0.6628 H         1 <0>         0.1018
     47 H18       -13.0128   10.6204    0.0854 H         1 <0>         0.1247
     48 H19       -12.9528   10.5419   -1.6918 H         1 <0>         0.1247
     49 H20       -13.9913    9.4155   -0.7858 H         1 <0>         0.1257
     50 H21       -12.0510    3.8670    0.0157 H         1 <0>         0.0967
     51 H22       -11.6623    3.4258   -1.6748 H         1 <0>         0.1059
     52 H23       -11.1653    1.8559    0.8736 H         1 <0>         0.0853
     53 H24       -11.5563    1.2543   -0.7715 H         1 <0>         0.0972
     54 H25        -8.9721    1.2653    0.2363 H         1 <0>         0.0923
     55 H26        -9.3283    1.4537   -1.5076 H         1 <0>         0.0942
     56 N5        -11.9104    9.0103   -0.6966 N.4       1 <0>        -0.4026
     57 H27       -11.0338    9.5435   -0.6580 H         1 <0>         0.4323
@<TRIPOS>BOND
     1    1    2 1
     2    1   30 1
     3    1   31 1
     4    1   32 1
     5    2    7 ar
     6    2    3 ar
     7    3    4 ar
     8    3   33 1
     9    4    5 ar
    10    4   34 1
    11    5    6 ar
    12    5    9 1
    13    6    7 ar
    14    6   35 1
    15    7    8 1
    16    9   10 am
    17    9   36 1
    18   10   11 2
    19   10   12 1
    20   12   13 1
    21   12   37 1
    22   12   38 1
    23   13   14 1
    24   14   20 2
    25   14   15 1
    26   15   29 1
    27   15   16 2
    28   16   17 1
    29   16   27 1
    30   17   18 am
    31   17   21 1
    32   18   19 2
    33   18   20 1
    34   21   25 1
    35   21   22 1
    36   22   23 1
    37   22   39 1
    38   22   40 1
    39   23   41 1
    40   23   42 1
    41   23   56 1
    42   24   25 1
    43   24   43 1
    44   24   44 1
    45   24   56 1
    46   25   45 1
    47   25   46 1
    48   26   47 1
    49   26   48 1
    50   26   49 1
    51   26   56 1
    52   27   28 1
    53   27   50 1
    54   27   51 1
    55   28   29 1
    56   28   52 1
    57   28   53 1
    58   29   54 1
    59   29   55 1
    60   56   57 1
@<TRIPOS>MOLECULE
ZINC20479417
   64    68     0     0     0
SMALL
USER_CHARGES
5-[(2R)-3-(4-benzylpiperazin-1-yl)-2-hydroxy-propyl]-3-methyl-1-oxo-pyrido[1,2-a]benzimidazole-4-carbonitrile
@<TRIPOS>ATOM
      1 C1          1.7887    9.1303   -0.0347 C.3       1 <0>        -0.1296
      2 C2          1.2301    7.7308   -0.0167 C.2       1 <0>         0.0886
      3 C3         -0.1186    7.5251    0.0014 C.2       1 <0>        -0.2831
      4 C4         -0.6254    6.2202    0.0185 C.2       1 <0>         0.5394
      5 O1         -1.8329    6.0441    0.0346 O.2       1 <0>        -0.5132
      6 N1          0.2009    5.1559    0.0174 N.am      1 <0>        -0.4348
      7 C5         -0.0646    3.7873    0.0326 C.ar      1 <0>         0.0630
      8 C6         -1.2431    3.0544    0.0533 C.ar      1 <0>        -0.0672
      9 C7         -1.1945    1.6750    0.0582 C.ar      1 <0>        -0.1079
     10 C8          0.0252    1.0188    0.0550 C.ar      1 <0>        -0.0856
     11 C9          1.2026    1.7381    0.0349 C.ar      1 <0>        -0.0935
     12 C10         1.1646    3.1264    0.0236 C.ar      1 <0>         0.1156
     13 N2          2.1540    4.1008    0.0031 N.pl3     1 <0>        -0.4875
     14 C11         1.5499    5.3257   -0.0004 C.2       1 <0>         0.4503
     15 C12         2.0930    6.6184   -0.0178 C.2       1 <0>        -0.2170
     16 C13         3.5126    6.8053   -0.0361 C.1       1 <0>         0.2842
     17 N3          4.6388    6.9536   -0.0507 N.1       1 <0>        -0.4449
     18 C14         3.5984    3.8565   -0.0130 C.3       1 <0>         0.1200
     19 C15         4.0830    3.7589   -1.4609 C.3       1 <0>         0.1079
     20 H1          3.8252    4.6645   -2.0296 H         1 <0>         0.0592
     21 C16         5.5915    3.5038   -1.4777 C.3       1 <0>         0.0220
     22 N4          6.0590    3.4226   -2.8680 N.3       1 <0>        -0.5365
     23 C17         7.3556    2.7357   -2.9484 C.3       1 <0>         0.0287
     24 C18         7.7687    2.6015   -4.4160 C.3       1 <0>        -0.0028
     25 N5          7.8447    3.9368   -5.0249 N.4       1 <0>        -0.3992
     26 C19         6.5481    4.6237   -4.9445 C.3       1 <0>         0.0024
     27 C20         6.1350    4.7579   -3.4769 C.3       1 <0>         0.0190
     28 C21         8.3122    3.8556   -6.4151 C.3       1 <0>         0.0474
     29 C22         9.5074    2.9408   -6.4906 C.ar      1 <0>        -0.1599
     30 C23        10.7818    3.4550   -6.3413 C.ar      1 <0>        -0.0946
     31 C24        11.8779    2.6152   -6.4057 C.ar      1 <0>        -0.1132
     32 C25        11.7002    1.2627   -6.6295 C.ar      1 <0>        -0.0841
     33 C26        10.4260    0.7494   -6.7845 C.ar      1 <0>        -0.1138
     34 C27         9.3297    1.5884   -6.7149 C.ar      1 <0>        -0.0966
     35 O2          3.4105    2.6820   -2.1168 O.3       1 <0>        -0.5770
     36 H2          0.9615    9.8553   -0.0309 H         1 <0>         0.0871
     37 H3          2.3956    9.2712   -0.9412 H         1 <0>         0.0812
     38 H4          2.4168    9.2859    0.8549 H         1 <0>         0.0840
     39 H5         -0.7943    8.3676    0.0022 H         1 <0>         0.1652
     40 H6         -2.1962    3.5623    0.0600 H         1 <0>         0.1480
     41 H7         -2.1117    1.1048    0.0692 H         1 <0>         0.1444
     42 H8          0.0549   -0.0608    0.0638 H         1 <0>         0.1426
     43 H9          2.1517    1.2227    0.0276 H         1 <0>         0.1372
     44 H10         4.1161    4.6854    0.4919 H         1 <0>         0.1116
     45 H11         3.8168    2.9144    0.5111 H         1 <0>         0.1141
     46 H12         6.1085    4.3281   -0.9646 H         1 <0>         0.0638
     47 H13         5.8090    2.5569   -0.9618 H         1 <0>         0.1005
     48 H14         8.1137    3.3187   -2.4049 H         1 <0>         0.0623
     49 H15         7.2695    1.7359   -2.4978 H         1 <0>         0.1246
     50 H16         8.7525    2.1132   -4.4768 H         1 <0>         0.1389
     51 H17         7.0244    1.9947   -4.9524 H         1 <0>         0.1346
     52 H18         6.6343    5.6235   -5.3951 H         1 <0>         0.1379
     53 H19         5.7900    4.0407   -5.4880 H         1 <0>         0.1360
     54 H20         5.1510    5.2456   -3.4151 H         1 <0>         0.1207
     55 H21         6.8791    5.3642   -2.9395 H         1 <0>         0.0664
     56 H22         7.5064    3.4592   -7.0503 H         1 <0>         0.1339
     57 H23         8.5957    4.8589   -6.7658 H         1 <0>         0.1381
     58 H24        10.9210    4.5123   -6.1705 H         1 <0>         0.1306
     59 H25        12.8734    3.0163   -6.2850 H         1 <0>         0.1360
     60 H26        12.5567    0.6071   -6.6836 H         1 <0>         0.1360
     61 H27        10.2872   -0.3072   -6.9597 H         1 <0>         0.1362
     62 H28         8.3342    1.1874   -6.8360 H         1 <0>         0.1301
     63 H29         3.6302    2.4569   -3.1709 H         1 <0>         0.4143
     64 H30         8.5781    4.5280   -4.4569 H         1 <0>         0.4379
@<TRIPOS>BOND
     1    1    2 1
     2    1   36 1
     3    1   37 1
     4    1   38 1
     5    2   15 1
     6    2    3 2
     7    3    4 1
     8    3   39 1
     9    4    5 2
    10    4    6 am
    11    6   14 1
    12    6    7 1
    13    7   12 ar
    14    7    8 ar
    15    8    9 ar
    16    8   40 1
    17    9   10 ar
    18    9   41 1
    19   10   11 ar
    20   10   42 1
    21   11   12 ar
    22   11   43 1
    23   12   13 1
    24   13   14 1
    25   13   18 1
    26   14   15 2
    27   15   16 1
    28   16   17 3
    29   18   19 1
    30   18   44 1
    31   18   45 1
    32   19   20 1
    33   19   21 1
    34   19   35 1
    35   21   22 1
    36   21   46 1
    37   21   47 1
    38   22   27 1
    39   22   23 1
    40   23   24 1
    41   23   48 1
    42   23   49 1
    43   24   25 1
    44   24   50 1
    45   24   51 1
    46   25   26 1
    47   25   28 1
    48   25   64 1
    49   26   27 1
    50   26   52 1
    51   26   53 1
    52   27   54 1
    53   27   55 1
    54   28   29 1
    55   28   56 1
    56   28   57 1
    57   29   34 ar
    58   29   30 ar
    59   30   31 ar
    60   30   58 1
    61   31   32 ar
    62   31   59 1
    63   32   33 ar
    64   32   60 1
    65   33   34 ar
    66   33   61 1
    67   34   62 1
    68   35   63 1
@<TRIPOS>MOLECULE
ZINC35852249
   61    64     0     0     0
SMALL
USER_CHARGES

@<TRIPOS>ATOM
      1 C1          0.0297    1.2474    0.1370 C.3       1 <0>         0.0214
      2 O1         -0.0118    1.9451   -1.1094 O.3       1 <0>        -0.2980
      3 C2          0.5844    1.3453   -2.1720 C.ar      1 <0>         0.1391
      4 C3          1.1919    0.1066   -2.0170 C.ar      1 <0>        -0.1830
      5 C4          1.7982   -0.5062   -3.0920 C.ar      1 <0>        -0.0747
      6 C5          1.8029    0.1192   -4.3413 C.ar      1 <0>        -0.1474
      7 C6          1.1914    1.3660   -4.4975 C.ar      1 <0>        -0.1105
      8 C7          0.5800    1.9720   -3.4171 C.ar      1 <0>         0.0937
      9 O2         -0.0208    3.1829   -3.5668 O.3       1 <0>        -0.3011
     10 C8          0.0127    3.7670   -4.8706 C.3       1 <0>         0.0231
     11 C9          2.4526   -0.5353   -5.4935 C.2       1 <0>         0.5721
     12 O3          2.4559    0.0102   -6.5803 O.2       1 <0>        -0.5243
     13 N1          3.0423   -1.7376   -5.3412 N.am      1 <0>        -0.6650
     14 C10         3.5726   -2.4039   -6.4539 C.ar      1 <0>         0.0591
     15 C11         4.1683   -1.6847   -7.4893 C.ar      1 <0>        -0.0318
     16 C12         4.6782   -2.3832   -8.5679 C.ar      1 <0>        -0.2169
     17 C13         4.5807   -3.7708   -8.5845 C.ar      1 <0>         0.3670
     18 N2          4.0080   -4.4208   -7.5840 N.ar      1 <0>        -0.5115
     19 C14         3.5164   -3.7867   -6.5363 C.ar      1 <0>         0.1296
     20 N3          5.0910   -4.4837   -9.6660 N.pl3     1 <0>        -0.6191
     21 C15         4.8744   -5.9435   -9.7224 C.3       1 <0>         0.1163
     22 C16         4.5181   -6.3956  -11.1502 C.3       1 <0>        -0.1587
     23 C17         3.5894   -5.3824  -11.7820 C.3       1 <0>        -0.0053
     24 N4          4.3770   -4.4149  -12.5427 N.4       1 <0>        -0.3613
     25 C18         4.8355   -3.3045  -11.7997 C.3       1 <0>        -0.0584
     26 C19         5.8102   -3.7662  -10.6985 C.3       1 <0>         0.1121
     27 C20         3.5549   -3.9206  -13.6553 C.3       1 <0>         0.0518
     28 C21         4.3837   -3.0136  -14.5280 C.2       1 <0>        -0.1894
     29 C22         4.4439   -1.6566  -14.2717 C.2       1 <0>        -0.1715
     30 C23         5.1987   -0.8687  -15.0760 C.2       1 <0>        -0.1520
     31 S1          5.8566   -2.0517  -16.2399 S.3       1 <0>         0.1235
     32 C24         5.0857   -3.5171  -15.5725 C.2       1 <0>        -0.1526
     33 H1         -0.4653    0.2822    0.0297 H         1 <0>         0.0599
     34 H2          1.0675    1.0926    0.4323 H         1 <0>         0.0601
     35 H3         -0.4813    1.8351    0.8996 H         1 <0>         0.1074
     36 H4          1.1897   -0.3777   -1.0517 H         1 <0>         0.1467
     37 H5          2.2701   -1.4698   -2.9687 H         1 <0>         0.1314
     38 H6          1.1929    1.8526   -5.4616 H         1 <0>         0.1502
     39 H7          1.0486    3.9143   -5.1762 H         1 <0>         0.0577
     40 H8         -0.4842    3.1039   -5.5787 H         1 <0>         0.0572
     41 H9         -0.5006    4.7284   -4.8513 H         1 <0>         0.1063
     42 H10         3.0997   -2.1417   -4.4612 H         1 <0>         0.4146
     43 H11         4.2297   -0.6072   -7.4497 H         1 <0>         0.1538
     44 H12         5.1460   -1.8581   -9.3875 H         1 <0>         0.1342
     45 H13         3.0605   -4.3510   -5.7362 H         1 <0>         0.1641
     46 H14         5.7836   -6.4527   -9.4024 H         1 <0>         0.0774
     47 H15         4.0601   -6.2106   -9.0489 H         1 <0>         0.1091
     48 H16         5.4285   -6.4743  -11.7444 H         1 <0>         0.0862
     49 H17         4.0242   -7.3666  -11.1114 H         1 <0>         0.1234
     50 H18         2.8950   -5.8920  -12.4500 H         1 <0>         0.1344
     51 H19         3.0312   -4.8644  -11.0021 H         1 <0>         0.1311
     52 H20         5.3455   -2.6094  -12.4667 H         1 <0>         0.1462
     53 H21         3.9847   -2.8016  -11.3399 H         1 <0>         0.1295
     54 H22         6.2964   -2.8938  -10.2618 H         1 <0>         0.1196
     55 H23         6.5653   -4.4200  -11.1350 H         1 <0>         0.0991
     56 H24         3.1965   -4.7643  -14.2451 H         1 <0>         0.1378
     57 H25         2.7039   -3.3661  -13.2598 H         1 <0>         0.1344
     58 H26         3.8975   -1.2305  -13.4434 H         1 <0>         0.1428
     59 H27         5.3599    0.1981  -15.0258 H         1 <0>         0.1975
     60 H28         5.1587   -4.5393  -15.9132 H         1 <0>         0.1965
     61 H29         5.1777   -4.8909  -12.9306 H         1 <0>         0.4151
@<TRIPOS>BOND
     1    1    2 1
     2    1   33 1
     3    1   34 1
     4    1   35 1
     5    2    3 1
     6    3    8 ar
     7    3    4 ar
     8    4    5 ar
     9    4   36 1
    10    5    6 ar
    11    5   37 1
    12    6    7 ar
    13    6   11 1
    14    7    8 ar
    15    7   38 1
    16    8    9 1
    17    9   10 1
    18   10   39 1
    19   10   40 1
    20   10   41 1
    21   11   12 2
    22   11   13 am
    23   13   14 1
    24   13   42 1
    25   14   19 ar
    26   14   15 ar
    27   15   16 ar
    28   15   43 1
    29   16   17 ar
    30   16   44 1
    31   17   18 ar
    32   17   20 1
    33   18   19 ar
    34   19   45 1
    35   20   26 1
    36   20   21 1
    37   21   22 1
    38   21   46 1
    39   21   47 1
    40   22   23 1
    41   22   48 1
    42   22   49 1
    43   23   24 1
    44   23   50 1
    45   23   51 1
    46   24   25 1
    47   24   27 1
    48   24   61 1
    49   25   26 1
    50   25   52 1
    51   25   53 1
    52   26   54 1
    53   26   55 1
    54   27   28 1
    55   27   56 1
    56   27   57 1
    57   28   32 2
    58   28   29 1
    59   29   30 2
    60   29   58 1
    61   30   31 1
    62   30   59 1
    63   31   32 1
    64   32   60 1
@<TRIPOS>MOLECULE
ZINC40930282
   52    55     0     0     0
SMALL
USER_CHARGES

@<TRIPOS>ATOM
      1 C1         -0.0167    1.3780    0.0096 C.ar      1 <0>        -0.0825
      2 C2          1.1706    2.0863    0.0021 C.ar      1 <0>        -0.0974
      3 C3          2.3780    1.4119   -0.0130 C.ar      1 <0>        -0.0214
      4 C4          2.3968    0.0272   -0.0206 C.ar      1 <0>        -0.0348
      5 C5          1.2081   -0.6797   -0.0130 C.ar      1 <0>        -0.0806
      6 C6          0.0021   -0.0041    0.0020 C.ar      1 <0>        -0.1040
      7 C7         -1.2929   -0.7748    0.0107 C.3       1 <0>         0.1614
      8 N1         -1.7262   -1.0172   -1.3676 N.am      1 <0>        -0.7213
      9 C8         -2.8672   -1.6936   -1.6063 C.2       1 <0>         0.5162
     10 O1         -3.5353   -2.1016   -0.6799 O.2       1 <0>        -0.5213
     11 C9         -3.3129   -1.9428   -3.0241 C.3       1 <0>        -0.1220
     12 C10        -2.2474   -2.7608   -3.7595 C.3       1 <0>        -0.1406
     13 C11        -2.7411   -3.0780   -5.1727 C.3       1 <0>        -0.0028
     14 N2         -3.9873   -3.8499   -5.0978 N.4       1 <0>        -0.3873
     15 C12        -5.0343   -3.0446   -4.4577 C.3       1 <0>        -0.0136
     16 C13        -4.6289   -2.7261   -3.0170 C.3       1 <0>        -0.1257
     17 C14        -4.4155   -4.2186   -6.4538 C.3       1 <0>         0.0952
     18 C15        -5.6252   -5.1135   -6.3727 C.2       1 <0>         0.2236
     19 N3         -6.8661   -4.7176   -6.3688 N.2       1 <0>        -0.4841
     20 C16        -7.6879   -5.7790   -6.2868 C.2       1 <0>         0.3039
     21 N4         -6.9618   -6.8680   -6.2377 N.2       1 <0>        -0.2800
     22 O2         -5.6061   -6.4506   -6.2983 O.3       1 <0>        -0.0770
     23 C17        -9.1715   -5.7253   -6.2565 C.ar      1 <0>        -0.0113
     24 C18        -9.8467   -4.5039   -6.3201 C.ar      1 <0>        -0.1195
     25 C19       -11.2268   -4.4991   -6.2895 C.ar      1 <0>         0.1064
     26 N5        -11.9058   -5.6263   -6.2016 N.ar      1 <0>        -0.4565
     27 C20       -11.3070   -6.7998   -6.1393 C.ar      1 <0>         0.1109
     28 C21        -9.9302   -6.8952   -6.1695 C.ar      1 <0>        -0.1278
     29 Cl1         3.9115   -0.8207   -0.0401 Cl        1 <0>        -0.0364
     30 Cl2         3.8691    2.3008   -0.0231 Cl        1 <0>        -0.0338
     31 H1         -0.9593    1.9049    0.0259 H         1 <0>         0.1420
     32 H2          1.1552    3.1661    0.0076 H         1 <0>         0.1490
     33 H3          1.2220   -1.7596   -0.0193 H         1 <0>         0.1441
     34 H4         -1.1449   -1.7282    0.5180 H         1 <0>         0.0864
     35 H5         -2.0551   -0.1986    0.5352 H         1 <0>         0.0883
     36 H6         -1.1918   -0.6908   -2.1085 H         1 <0>         0.4035
     37 H7         -3.4585   -0.9901   -3.5332 H         1 <0>         0.1205
     38 H8         -1.3230   -2.1861   -3.8173 H         1 <0>         0.1226
     39 H9         -2.0657   -3.6904   -3.2202 H         1 <0>         0.0990
     40 H10        -2.9222   -2.1478   -5.7112 H         1 <0>         0.1415
     41 H11        -1.9848   -3.6601   -5.6992 H         1 <0>         0.1443
     42 H12        -5.1666   -2.1150   -5.0114 H         1 <0>         0.1425
     43 H13        -5.9710   -3.6020   -4.4563 H         1 <0>         0.1326
     44 H14        -4.4966   -3.6550   -2.4623 H         1 <0>         0.0981
     45 H15        -5.4067   -2.1266   -2.5441 H         1 <0>         0.1242
     46 H16        -4.6670   -3.3174   -7.0130 H         1 <0>         0.1787
     47 H17        -3.6066   -4.7460   -6.9594 H         1 <0>         0.1738
     48 H18        -9.2970   -3.5771   -6.3918 H         1 <0>         0.1508
     49 H19       -11.7575   -3.5598   -6.3377 H         1 <0>         0.1718
     50 H20       -11.9019   -7.6984   -6.0677 H         1 <0>         0.1729
     51 H21        -9.4466   -7.8597   -6.1228 H         1 <0>         0.1475
     52 H22        -3.8310   -4.6875   -4.5573 H         1 <0>         0.4299
@<TRIPOS>BOND
     1    1    6 ar
     2    1    2 ar
     3    1   31 1
     4    2    3 ar
     5    2   32 1
     6    3    4 ar
     7    3   30 1
     8    4    5 ar
     9    4   29 1
    10    5    6 ar
    11    5   33 1
    12    6    7 1
    13    7    8 1
    14    7   34 1
    15    7   35 1
    16    8    9 am
    17    8   36 1
    18    9   10 2
    19    9   11 1
    20   11   16 1
    21   11   12 1
    22   11   37 1
    23   12   13 1
    24   12   38 1
    25   12   39 1
    26   13   14 1
    27   13   40 1
    28   13   41 1
    29   14   15 1
    30   14   17 1
    31   14   52 1
    32   15   16 1
    33   15   42 1
    34   15   43 1
    35   16   44 1
    36   16   45 1
    37   17   18 1
    38   17   46 1
    39   17   47 1
    40   18   22 1
    41   18   19 2
    42   19   20 1
    43   20   21 2
    44   20   23 1
    45   21   22 1
    46   23   28 ar
    47   23   24 ar
    48   24   25 ar
    49   24   48 1
    50   25   26 ar
    51   25   49 1
    52   26   27 ar
    53   27   28 ar
    54   27   50 1
    55   28   51 1
@<TRIPOS>MOLECULE
ZINC63818889
   66    70     0     0     0
SMALL
USER_CHARGES

@<TRIPOS>ATOM
      1 C1         -0.0178    1.4608    0.0101 C.3       1 <0>         0.0810
      2 N1          0.0021   -0.0041    0.0020 N.am      1 <0>        -0.5929
      3 C2         -1.2602   -0.7402    0.0041 C.3       1 <0>         0.2146
      4 H1         -2.0602   -0.0801   -0.3311 H         1 <0>         0.1137
      5 C3         -1.1883   -1.9514   -0.9222 C.3       1 <0>        -0.0769
      6 H2         -2.0741   -2.5700   -0.7777 H         1 <0>         0.1316
      7 C4          0.0429   -2.7637   -0.6183 C.ar      1 <0>        -0.0536
      8 C5          0.0334   -4.1349   -0.7586 C.ar      1 <0>        -0.1214
      9 C6          1.1776   -4.8654   -0.4886 C.ar      1 <0>        -0.0881
     10 C7          2.3354   -4.2279   -0.0786 C.ar      1 <0>        -0.1178
     11 C8          2.3562   -2.8556    0.0708 C.ar      1 <0>        -0.0570
     12 C9          1.2047   -2.1170   -0.1930 C.ar      1 <0>        -0.1229
     13 C10         1.1833   -0.6506   -0.0127 C.2       1 <0>         0.5571
     14 O1          2.2221   -0.0347    0.1254 O.2       1 <0>        -0.5253
     15 C11        -1.1340   -1.4832   -2.3536 C.2       1 <0>         0.5299
     16 O2         -1.1512   -0.2967   -2.6046 O.2       1 <0>        -0.5122
     17 N2         -1.0662   -2.3828   -3.3548 N.am      1 <0>        -0.7316
     18 C12        -1.0134   -1.9276   -4.7463 C.3       1 <0>         0.1264
     19 C13        -0.9413   -3.1398   -5.6771 C.3       1 <0>        -0.1055
     20 C14        -0.8870   -2.6716   -7.1085 C.2       1 <0>         0.0694
     21 C15         0.2208   -2.4875   -7.8624 C.ar      1 <0>        -0.1660
     22 C16         1.6519   -2.6605   -7.5856 C.ar      1 <0>        -0.0128
     23 C17         2.5464   -2.3898   -8.5632 C.ar      1 <0>        -0.1498
     24 C18         2.1421   -1.9489   -9.8308 C.ar      1 <0>         0.0559
     25 C19         0.8458   -1.7664  -10.1602 C.ar      1 <0>        -0.2103
     26 C20        -0.1802   -2.0213   -9.2090 C.ar      1 <0>         0.3282
     27 N3         -1.4852   -1.9211   -9.2846 N.pl3     1 <0>        -0.5851
     28 C21        -2.0605   -2.3186   -7.9948 C.3       1 <0>         0.0609
     29 C22        -1.5585   -1.2072    1.4055 C.ar      1 <0>        -0.1134
     30 C23        -0.5362   -1.6797    2.2074 C.ar      1 <0>        -0.0945
     31 C24        -0.8047   -2.1093    3.4936 C.ar      1 <0>        -0.1696
     32 C25        -2.1007   -2.0663    3.9820 C.ar      1 <0>         0.1121
     33 C26        -3.1296   -1.5903    3.1751 C.ar      1 <0>         0.1026
     34 C27        -2.8528   -1.1568    1.8884 C.ar      1 <0>        -0.1577
     35 O3         -4.4032   -1.5462    3.6499 O.3       1 <0>        -0.3031
     36 C28        -5.4082   -1.0458    2.7658 C.3       1 <0>         0.0253
     37 O4         -2.3666   -2.4889    5.2470 O.3       1 <0>        -0.3037
     38 C29        -1.2615   -2.9652    6.0177 C.3       1 <0>         0.0245
     39 H3          1.0048    1.8381    0.0023 H         1 <0>         0.0887
     40 H4         -0.5450    1.8219   -0.8730 H         1 <0>         0.0690
     41 H5         -0.5280    1.8123    0.9069 H         1 <0>         0.0630
     42 H6         -0.8665   -4.6390   -1.0786 H         1 <0>         0.1310
     43 H7          1.1667   -5.9398   -0.5982 H         1 <0>         0.1329
     44 H8          3.2249   -4.8054    0.1254 H         1 <0>         0.1352
     45 H9          3.2597   -2.3575    0.3900 H         1 <0>         0.1403
     46 H10        -1.0524   -3.3317   -3.1541 H         1 <0>         0.4062
     47 H11        -1.9082   -1.3480   -4.9732 H         1 <0>         0.0800
     48 H12        -0.1307   -1.3049   -4.8917 H         1 <0>         0.0792
     49 H13        -0.0465   -3.7194   -5.4502 H         1 <0>         0.1163
     50 H14        -1.8241   -3.7625   -5.5318 H         1 <0>         0.1197
     51 H15         1.9856   -2.9985   -6.6157 H         1 <0>         0.1604
     52 H16         3.5999   -2.5164   -8.3618 H         1 <0>         0.1585
     53 H17         2.8988   -1.7467  -10.5744 H         1 <0>         0.1616
     54 H18         0.5865   -1.4245  -11.1513 H         1 <0>         0.1611
     55 H19        -2.7095   -3.1851   -8.1216 H         1 <0>         0.1753
     56 H20        -2.6205   -1.4887   -7.5639 H         1 <0>         0.1741
     57 H21         0.4744   -1.7137    1.8279 H         1 <0>         0.1236
     58 H22        -0.0044   -2.4786    4.1178 H         1 <0>         0.1373
     59 H23        -3.6490   -0.7834    1.2614 H         1 <0>         0.1376
     60 H24        -6.3756   -1.0645    3.2677 H         1 <0>         0.1034
     61 H25        -5.1656   -0.0215    2.4826 H         1 <0>         0.0558
     62 H26        -5.4499   -1.6695    1.8729 H         1 <0>         0.0541
     63 H27        -0.8076   -3.8182    5.5133 H         1 <0>         0.0561
     64 H28        -0.5230   -2.1705    6.1235 H         1 <0>         0.0568
     65 H29        -1.6110   -3.2702    7.0040 H         1 <0>         0.1045
     66 H30        -1.9867   -1.6356  -10.0643 H         1 <0>         0.4563
@<TRIPOS>BOND
     1    1    2 1
     2    1   39 1
     3    1   40 1
     4    1   41 1
     5    2   13 am
     6    2    3 1
     7    3    4 1
     8    3    5 1
     9    3   29 1
    10    5    6 1
    11    5    7 1
    12    5   15 1
    13    7   12 ar
    14    7    8 ar
    15    8    9 ar
    16    8   42 1
    17    9   10 ar
    18    9   43 1
    19   10   11 ar
    20   10   44 1
    21   11   12 ar
    22   11   45 1
    23   12   13 1
    24   13   14 2
    25   15   16 2
    26   15   17 am
    27   17   18 1
    28   17   46 1
    29   18   19 1
    30   18   47 1
    31   18   48 1
    32   19   20 1
    33   19   49 1
    34   19   50 1
    35   20   28 1
    36   20   21 2
    37   21   26 ar
    38   21   22 ar
    39   22   23 ar
    40   22   51 1
    41   23   24 ar
    42   23   52 1
    43   24   25 ar
    44   24   53 1
    45   25   26 ar
    46   25   54 1
    47   26   27 2
    48   27   28 1
    49   27   66 1
    50   28   55 1
    51   28   56 1
    52   29   34 ar
    53   29   30 ar
    54   30   31 ar
    55   30   57 1
    56   31   32 ar
    57   31   58 1
    58   32   33 ar
    59   32   37 1
    60   33   34 ar
    61   33   35 1
    62   34   59 1
    63   35   36 1
    64   36   60 1
    65   36   61 1
    66   36   62 1
    67   37   38 1
    68   38   63 1
    69   38   64 1
    70   38   65 1
@<TRIPOS>MOLECULE
ZINC06197597
   58    61     0     0     0
SMALL
USER_CHARGES
1-[(4-chlorophenyl)-[1-(p-tolylsulfonylmethyl)tetrazol-5-yl]-methyl]-4-methyl-piperidine
@<TRIPOS>ATOM
      1 C1          1.3567   -6.7600    0.5444 C.3       1 <0>        -0.1344
      2 C2          0.9319   -5.3668    0.9313 C.ar      1 <0>        -0.0087
      3 C3          0.8047   -4.3889   -0.0374 C.ar      1 <0>        -0.1385
      4 C4          0.4150   -3.1110    0.3174 C.ar      1 <0>        -0.0190
      5 C5          0.1515   -2.8112    1.6409 C.ar      1 <0>        -0.6719
      6 C6          0.2833   -3.7879    2.6103 C.ar      1 <0>        -0.0137
      7 C7          0.6688   -5.0669    2.2548 C.ar      1 <0>        -0.1358
      8 S1         -0.3453   -1.1824    2.0932 S.o2      1 <0>         2.4794
      9 O1          0.2006   -0.3435    1.0845 O.2       1 <0>        -0.8991
     10 O2          0.0591   -1.0431    3.4483 O.2       1 <0>        -0.8832
     11 C8         -2.1557   -1.1988    1.9800 C.3       1 <0>        -0.4143
     12 N1         -2.6842    0.0955    2.4177 N.pl3     1 <0>        -0.2756
     13 C9         -3.0211    1.1306    1.6260 C.2       1 <0>         0.1244
     14 N2         -3.4420    2.0875    2.4166 N.2       1 <0>        -0.2511
     15 N3         -3.3748    1.6596    3.6300 N.2       1 <0>        -0.0323
     16 N4         -2.9145    0.4573    3.6345 N.2       1 <0>        -0.0356
     17 C10        -2.9265    1.1817    0.1228 C.3       1 <0>         0.1820
     18 H1         -2.5574    0.2265   -0.2507 H         1 <0>         0.1636
     19 C11        -1.9784    2.2802   -0.2838 C.ar      1 <0>        -0.1409
     20 C12        -0.9964    2.7046    0.5917 C.ar      1 <0>        -0.0475
     21 C13        -0.1227    3.7079    0.2170 C.ar      1 <0>        -0.0896
     22 C14        -0.2347    4.2914   -1.0324 C.ar      1 <0>        -0.0050
     23 C15        -1.2214    3.8702   -1.9061 C.ar      1 <0>        -0.0924
     24 C16        -2.0945    2.8668   -1.5302 C.ar      1 <0>        -0.1002
     25 Cl1         0.8627    5.5512   -1.5040 Cl        1 <0>        -0.0324
     26 C17        -4.8446    2.6584    0.1442 C.3       1 <0>        -0.0164
     27 C18        -6.1585    2.9856   -0.5690 C.3       1 <0>        -0.1391
     28 C19        -7.1214    1.8042   -0.4219 C.3       1 <0>        -0.1061
     29 C20        -6.4649    0.5461   -0.9971 C.3       1 <0>        -0.1393
     30 C21        -5.1422    0.2896   -0.2714 C.3       1 <0>        -0.0122
     31 C22        -8.4144    2.1004   -1.1844 C.3       1 <0>        -0.1525
     32 H2          2.4434   -6.8334    0.5870 H         1 <0>         0.0882
     33 H3          0.9167   -7.4791    1.2353 H         1 <0>         0.0793
     34 H4          1.0174   -6.9751   -0.4688 H         1 <0>         0.0784
     35 H5          1.0103   -4.6232   -1.0715 H         1 <0>         0.1409
     36 H6          0.3160   -2.3469   -0.4394 H         1 <0>         0.1438
     37 H7          0.0816   -3.5525    3.6449 H         1 <0>         0.1479
     38 H8          0.7678   -5.8310    3.0116 H         1 <0>         0.1427
     39 H9         -2.5525   -1.9880    2.6186 H         1 <0>         0.1930
     40 H10        -2.4535   -1.3825    0.9477 H         1 <0>         0.1716
     41 H11        -0.9090    2.2490    1.5670 H         1 <0>         0.1238
     42 H12         0.6476    4.0360    0.8993 H         1 <0>         0.1514
     43 H13        -1.3095    4.3256   -2.8814 H         1 <0>         0.1529
     44 H14        -2.8647    2.5380   -2.2121 H         1 <0>         0.1320
     45 H15        -5.0385    2.4910    1.2037 H         1 <0>         0.1451
     46 H16        -4.1516    3.4918    0.0292 H         1 <0>         0.1382
     47 H17        -5.9635    3.1666   -1.6261 H         1 <0>         0.0898
     48 H18        -6.6031    3.8752   -0.1228 H         1 <0>         0.1174
     49 H19        -7.3482    1.6470    0.6326 H         1 <0>         0.0881
     50 H20        -6.2747    0.6888   -2.0608 H         1 <0>         0.0938
     51 H21        -7.1284   -0.3072   -0.8567 H         1 <0>         0.1161
     52 H22        -4.6653   -0.5974   -0.6884 H         1 <0>         0.1317
     53 H23        -5.3348    0.1335    0.7900 H         1 <0>         0.1243
     54 H24        -9.0970    1.2566   -1.0838 H         1 <0>         0.0670
     55 H25        -8.8810    2.9960   -0.7743 H         1 <0>         0.0691
     56 H26        -8.1863    2.2596   -2.2383 H         1 <0>         0.0632
     57 N5         -4.2516    1.4524   -0.4720 N.4       1 <0>        -0.3877
     58 H27        -4.1379    1.6148   -1.4795 H         1 <0>         0.4351
@<TRIPOS>BOND
     1    1    2 1
     2    1   32 1
     3    1   33 1
     4    1   34 1
     5    2    7 ar
     6    2    3 ar
     7    3    4 ar
     8    3   35 1
     9    4    5 ar
    10    4   36 1
    11    5    6 ar
    12    5    8 1
    13    6    7 ar
    14    6   37 1
    15    7   38 1
    16    8    9 2
    17    8   10 2
    18    8   11 1
    19   11   12 1
    20   11   39 1
    21   11   40 1
    22   12   16 1
    23   12   13 1
    24   13   14 2
    25   13   17 1
    26   14   15 1
    27   15   16 2
    28   17   18 1
    29   17   19 1
    30   17   57 1
    31   19   24 ar
    32   19   20 ar
    33   20   21 ar
    34   20   41 1
    35   21   22 ar
    36   21   42 1
    37   22   23 ar
    38   22   25 1
    39   23   24 ar
    40   23   43 1
    41   24   44 1
    42   26   27 1
    43   26   45 1
    44   26   46 1
    45   26   57 1
    46   27   28 1
    47   27   47 1
    48   27   48 1
    49   28   29 1
    50   28   31 1
    51   28   49 1
    52   29   30 1
    53   29   50 1
    54   29   51 1
    55   30   52 1
    56   30   53 1
    57   30   57 1
    58   31   54 1
    59   31   55 1
    60   31   56 1
    61   57   58 1
@<TRIPOS>MOLECULE
ZINC12438522
   58    62     0     0     0
SMALL
USER_CHARGES
[6-chloro-3-[[methyl-[(1-methylpyrazol-4-yl)methyl]amino]methyl]imidazo[1,2-a]pyridin-2-yl]-(3,4-dihydro-1H-isoquinolin-2-yl)methanone
@<TRIPOS>ATOM
      1 C1         -2.5715    1.4814   -0.2430 C.3       1 <0>         0.0873
      2 N1         -1.1799    1.9379   -0.2058 N.pl3     1 <0>        -0.3539
      3 C2         -0.0862    1.1485   -0.1650 C.2       1 <0>         0.1066
      4 C3          1.0021    1.9524   -0.1456 C.2       1 <0>        -0.3208
      5 C4          0.5582    3.2785   -0.1704 C.2       1 <0>         0.0678
      6 N2         -0.7498    3.2711   -0.2035 N.2       1 <0>        -0.2730
      7 C5          2.4387    1.4989   -0.1041 C.3       1 <0>         0.0915
      8 C6          3.0025    2.6302   -2.1692 C.3       1 <0>        -0.0492
      9 C7          4.2515    0.6735   -1.4807 C.3       1 <0>         0.0831
     10 C8          4.6215    0.3044   -2.8941 C.2       1 <0>        -0.0784
     11 C9          4.3334   -0.8708   -3.5279 C.2       1 <0>         0.0704
     12 N3          4.8325   -0.8074   -4.7761 N.2       1 <0>        -0.4488
     13 C10         5.4291    0.3610   -4.9429 C.2       1 <0>         0.2603
     14 N4          5.3113    1.0773   -3.7781 N.pl3     1 <0>        -0.3415
     15 C11         5.8469    2.3315   -3.6806 C.2       1 <0>         0.0351
     16 C12         6.4987    2.8837   -4.7252 C.2       1 <0>        -0.0285
     17 C13         6.6356    2.1742   -5.9319 C.2       1 <0>        -0.0786
     18 C14         6.1081    0.9270   -6.0438 C.2       1 <0>        -0.0552
     19 Cl1         7.1709    4.4776   -4.5792 Cl        1 <0>        -0.0029
     20 C15         3.5993   -2.0111   -2.9458 C.2       1 <0>         0.5978
     21 O1          3.2874   -1.9973   -1.7706 O.2       1 <0>        -0.5460
     22 N5          3.2746   -3.0679   -3.7168 N.am      1 <0>        -0.5775
     23 C16         2.4828   -4.1894   -3.1848 C.3       1 <0>         0.1071
     24 C17         1.1541   -4.2227   -3.9481 C.3       1 <0>        -0.0937
     25 C18         1.3867   -4.1174   -5.4323 C.ar      1 <0>        -0.0812
     26 C19         0.3680   -4.5443   -6.2758 C.ar      1 <0>        -0.1172
     27 C20         0.5107   -4.4638   -7.6451 C.ar      1 <0>        -0.1150
     28 C21         1.6768   -3.9547   -8.1861 C.ar      1 <0>        -0.1151
     29 C22         2.6915   -3.5342   -7.3513 C.ar      1 <0>        -0.1117
     30 C23         2.5502   -3.6176   -5.9727 C.ar      1 <0>        -0.0967
     31 C24         3.7011   -3.1497   -5.1178 C.3       1 <0>         0.1109
     32 H1         -2.9475    1.3786    0.7749 H         1 <0>         0.0896
     33 H2         -3.1782    2.2085   -0.7827 H         1 <0>         0.1006
     34 H3         -2.6242    0.5173   -0.7489 H         1 <0>         0.0980
     35 H4         -0.0804    0.0686   -0.1543 H         1 <0>         0.1869
     36 H5          1.1865    4.1569   -0.1640 H         1 <0>         0.1914
     37 H6          3.0399    2.2437    0.4175 H         1 <0>         0.1379
     38 H7          2.5040    0.5463    0.4216 H         1 <0>         0.1378
     39 H8          3.6707    3.3010   -1.6292 H         1 <0>         0.1256
     40 H9          3.3775    2.4815   -3.1818 H         1 <0>         0.1040
     41 H10         2.0050    3.0676   -2.2118 H         1 <0>         0.1270
     42 H11         5.0029    1.3499   -1.0732 H         1 <0>         0.1382
     43 H12         4.2049   -0.2281   -0.8700 H         1 <0>         0.1714
     44 H13         5.7477    2.8853   -2.7587 H         1 <0>         0.1782
     45 H14         7.1581    2.6188   -6.7660 H         1 <0>         0.1687
     46 H15         6.2074    0.3738   -6.9661 H         1 <0>         0.1773
     47 H16         3.0209   -5.1252   -3.3359 H         1 <0>         0.0856
     48 H17         2.2965   -4.0378   -2.1216 H         1 <0>         0.1041
     49 H18         0.5306   -3.3899   -3.6230 H         1 <0>         0.0778
     50 H19         0.6418   -5.1601   -3.7312 H         1 <0>         0.0926
     51 H20        -0.5437   -4.9422   -5.8552 H         1 <0>         0.1229
     52 H21        -0.2860   -4.7979   -8.2931 H         1 <0>         0.1255
     53 H22         1.7927   -3.8861   -9.2577 H         1 <0>         0.1266
     54 H23         3.6028   -3.1370   -7.7735 H         1 <0>         0.1252
     55 H24         4.0274   -2.1661   -5.4557 H         1 <0>         0.1547
     56 H25         4.5276   -3.8550   -5.2047 H         1 <0>         0.0844
     57 N6          2.9224    1.3203   -1.4893 N.4       1 <0>        -0.3940
     58 H26         2.2628    0.7202   -1.9981 H         1 <0>         0.4288
@<TRIPOS>BOND
     1    1    2 1
     2    1   32 1
     3    1   33 1
     4    1   34 1
     5    2    6 1
     6    2    3 1
     7    3    4 2
     8    3   35 1
     9    4    5 1
    10    4    7 1
    11    5    6 2
    12    5   36 1
    13    7   37 1
    14    7   38 1
    15    7   57 1
    16    8   39 1
    17    8   40 1
    18    8   41 1
    19    8   57 1
    20    9   10 1
    21    9   42 1
    22    9   43 1
    23    9   57 1
    24   10   14 1
    25   10   11 2
    26   11   12 1
    27   11   20 1
    28   12   13 2
    29   13   18 1
    30   13   14 1
    31   14   15 1
    32   15   16 2
    33   15   44 1
    34   16   17 1
    35   16   19 1
    36   17   18 2
    37   17   45 1
    38   18   46 1
    39   20   21 2
    40   20   22 am
    41   22   31 1
    42   22   23 1
    43   23   24 1
    44   23   47 1
    45   23   48 1
    46   24   25 1
    47   24   49 1
    48   24   50 1
    49   25   30 ar
    50   25   26 ar
    51   26   27 ar
    52   26   51 1
    53   27   28 ar
    54   27   52 1
    55   28   29 ar
    56   28   53 1
    57   29   30 ar
    58   29   54 1
    59   30   31 1
    60   31   55 1
    61   31   56 1
    62   57   58 1
@<TRIPOS>MOLECULE
ZINC32836123
   59    64     0     0     0
SMALL
USER_CHARGES
[4-(imidazo[1,2-a]pyridin-2-ylmethyl)piperazin-1-yl]-[2-(4-pyridyl)-4-quinolyl]methanone
@<TRIPOS>ATOM
      1 C1         -4.8032   -0.6881    3.6915 C.ar      1 <0>        -0.0989
      2 C2         -5.3341   -0.1754    4.8736 C.ar      1 <0>        -0.0926
      3 C3         -4.6750    0.7812    5.5818 C.ar      1 <0>        -0.0881
      4 C4         -3.4366    1.2647    5.1182 C.ar      1 <0>         0.1370
      5 C5         -2.9033    0.7439    3.9124 C.ar      1 <0>        -0.0672
      6 C6         -3.6074   -0.2438    3.2121 C.ar      1 <0>        -0.1003
      7 C7         -1.6526    1.2263    3.4467 C.ar      1 <0>        -0.0643
      8 C8         -1.0127    2.2007    4.1974 C.ar      1 <0>        -0.1282
      9 C9         -1.6110    2.6669    5.3778 C.ar      1 <0>         0.1910
     10 N1         -2.7713    2.2020    5.7950 N.ar      1 <0>        -0.4414
     11 C10        -0.9204    3.7096    6.1757 C.ar      1 <0>        -0.0113
     12 C11         0.3141    4.2243    5.7696 C.ar      1 <0>        -0.1572
     13 C12         0.9200    5.1966    6.5395 C.ar      1 <0>         0.1014
     14 N2          0.3542    5.6322    7.6484 N.ar      1 <0>        -0.4746
     15 C13        -0.8071    5.1698    8.0692 C.ar      1 <0>         0.1020
     16 C14        -1.4836    4.2000    7.3572 C.ar      1 <0>        -0.1301
     17 C15        -1.0535    0.7103    2.1967 C.2       1 <0>         0.5679
     18 O1         -0.8969   -0.4855    2.0463 O.2       1 <0>        -0.5060
     19 N3         -0.6811    1.5663    1.2245 N.am      1 <0>        -0.6105
     20 C16         0.0312    1.0882    0.0298 C.3       1 <0>         0.1118
     21 C17        -0.6892    1.6162   -1.2153 C.3       1 <0>         0.0406
     22 N4         -0.8256    3.0755   -1.1163 N.3       1 <0>        -0.5291
     23 C18        -1.6613    3.4560    0.0304 C.3       1 <0>         0.0281
     24 C19        -0.9807    3.0033    1.3267 C.3       1 <0>         0.1078
     25 C20        -1.3556    3.6406   -2.3644 C.3       1 <0>         0.1073
     26 C21        -1.7122    5.0888   -2.1485 C.2       1 <0>         0.0859
     27 C22        -0.9146    6.1455   -2.4180 C.2       1 <0>        -0.0037
     28 N5         -1.6121    7.2741   -2.0833 N.pl3     1 <0>        -0.3288
     29 C23        -1.3040    8.6023   -2.1450 C.2       1 <0>         0.0869
     30 C24        -2.1914    9.5333   -1.7363 C.2       1 <0>        -0.1141
     31 C25        -3.4474    9.1459   -1.2406 C.2       1 <0>        -0.0174
     32 C26        -3.7671    7.8255   -1.1733 C.2       1 <0>        -0.1265
     33 C27        -2.8298    6.8654   -1.6043 C.cat     1 <0>         0.3175
     34 N6         -2.8667    5.5413   -1.6535 N.pl3     1 <0>        -0.5274
     35 H1         -5.3466   -1.4470    3.1482 H         1 <0>         0.1349
     36 H2         -6.2839   -0.5430    5.2330 H         1 <0>         0.1389
     37 H3         -5.0999    1.1678    6.4963 H         1 <0>         0.1440
     38 H4         -3.2065   -0.6487    2.2946 H         1 <0>         0.1346
     39 H5         -0.0610    2.5974    3.8763 H         1 <0>         0.1461
     40 H6          0.7850    3.8691    4.8650 H         1 <0>         0.1362
     41 H7          1.8722    5.6030    6.2319 H         1 <0>         0.1615
     42 H8         -1.2343    5.5549    8.9833 H         1 <0>         0.1636
     43 H9         -2.4342    3.8259    7.7076 H         1 <0>         0.1488
     44 H10         1.0668    1.4586    0.0477 H         1 <0>         0.0869
     45 H11         0.0353   -0.0118    0.0210 H         1 <0>         0.1093
     46 H12        -0.1057    1.3613   -2.1122 H         1 <0>         0.1053
     47 H13        -1.6866    1.1573   -1.2841 H         1 <0>         0.0516
     48 H14        -1.7894    4.5484    0.0442 H         1 <0>         0.0797
     49 H15        -2.6455    2.9725   -0.0567 H         1 <0>         0.0470
     50 H16        -1.6506    3.1783    2.1815 H         1 <0>         0.0940
     51 H17        -0.0454    3.5634    1.4732 H         1 <0>         0.0866
     52 H18        -0.5936    3.5644   -3.1540 H         1 <0>         0.1312
     53 H19        -2.2542    3.0829   -2.6669 H         1 <0>         0.0741
     54 H20         0.0854    6.1068   -2.8240 H         1 <0>         0.2262
     55 H21        -0.3413    8.9111   -2.5248 H         1 <0>         0.2009
     56 H22        -1.9349   10.5810   -1.7909 H         1 <0>         0.1835
     57 H23        -4.1557    9.8930   -0.9141 H         1 <0>         0.1747
     58 H24        -4.7300    7.5161   -0.7943 H         1 <0>         0.1773
     59 H25        -3.6566    4.8325   -1.3643 H         1 <0>         0.4957
@<TRIPOS>BOND
     1    1    6 ar
     2    1    2 ar
     3    1   35 1
     4    2    3 ar
     5    2   36 1
     6    3    4 ar
     7    3   37 1
     8    4   10 ar
     9    4    5 ar
    10    5    6 ar
    11    5    7 ar
    12    6   38 1
    13    7    8 ar
    14    7   17 1
    15    8    9 ar
    16    8   39 1
    17    9   10 ar
    18    9   11 1
    19   11   16 ar
    20   11   12 ar
    21   12   13 ar
    22   12   40 1
    23   13   14 ar
    24   13   41 1
    25   14   15 ar
    26   15   16 ar
    27   15   42 1
    28   16   43 1
    29   17   18 2
    30   17   19 am
    31   19   24 1
    32   19   20 1
    33   20   21 1
    34   20   44 1
    35   20   45 1
    36   21   22 1
    37   21   46 1
    38   21   47 1
    39   22   23 1
    40   22   25 1
    41   23   24 1
    42   23   48 1
    43   23   49 1
    44   24   50 1
    45   24   51 1
    46   25   26 1
    47   25   52 1
    48   25   53 1
    49   26   34 1
    50   26   27 2
    51   27   28 1
    52   27   54 1
    53   28   33 1
    54   28   29 1
    55   29   30 2
    56   29   55 1
    57   30   31 1
    58   30   56 1
    59   31   32 2
    60   31   57 1
    61   32   33 1
    62   32   58 1
    63   33   34 2
    64   34   59 1
@<TRIPOS>MOLECULE
ZINC35809877
   64    68     0     0     0
SMALL
USER_CHARGES

@<TRIPOS>ATOM
      1 C1         -0.2651    1.3032   -1.8050 C.3       1 <0>         0.0225
      2 O1         -0.1025   -0.0094   -1.2640 O.3       1 <0>        -0.2947
      3 C2         -1.1952   -0.5796   -0.6873 C.ar      1 <0>         0.0814
      4 C3         -2.3971    0.1083   -0.6492 C.ar      1 <0>        -0.1312
      5 C4         -3.5075   -0.4702   -0.0635 C.ar      1 <0>        -0.1773
      6 C5         -3.4210   -1.7402    0.4873 C.ar      1 <0>         0.1774
      7 C6         -2.2199   -2.4320    0.4512 C.ar      1 <0>        -0.2626
      8 C7         -1.1075   -1.8560   -0.1406 C.ar      1 <0>         0.1798
      9 O2          0.0699   -2.5352   -0.1825 O.3       1 <0>        -0.2906
     10 C8          0.0868   -3.8408    0.3982 C.3       1 <0>         0.0190
     11 O3         -4.5146   -2.3070    1.0633 O.3       1 <0>        -0.3142
     12 C9         -4.3539   -3.6172    1.6106 C.3       1 <0>         0.0220
     13 C10        -4.8137    0.2803   -0.0228 C.3       1 <0>         0.1843
     14 H1         -5.5465   -0.2950    0.5430 H         1 <0>         0.1536
     15 C11        -5.3171    0.4924   -1.4299 C.2       1 <0>        -0.0569
     16 C12        -5.1362   -0.3396   -2.4738 C.2       1 <0>        -0.1167
     17 C13        -5.7802    0.2348   -3.5879 C.2       1 <0>        -0.1955
     18 C14        -6.3274    1.3992   -3.1826 C.2       1 <0>         0.0284
     19 N1         -6.0394    1.5680   -1.8624 N.pl3     1 <0>        -0.4568
     20 C15        -6.4195    2.7129   -1.0270 C.3       1 <0>         0.0837
     21 C16        -6.9763    2.1957    0.3025 C.3       1 <0>        -0.1584
     22 C17        -5.8386    2.0075    1.2984 C.3       1 <0>        -0.0186
     23 N2         -4.6102    1.5847    0.6221 N.4       1 <0>        -0.3854
     24 C18        -3.5239    1.4781    1.6053 C.3       1 <0>         0.0373
     25 C19        -3.2545    2.8341    2.2052 C.ar      1 <0>        -0.1548
     26 C20        -2.3334    3.6792    1.6148 C.ar      1 <0>        -0.0900
     27 C21        -2.0827    4.9229    2.1628 C.ar      1 <0>        -0.1084
     28 C22        -2.7551    5.3266    3.3068 C.ar      1 <0>         0.0861
     29 C23        -3.6828    4.4780    3.8989 C.ar      1 <0>         0.0583
     30 C24        -3.9328    3.2328    3.3414 C.ar      1 <0>        -0.0944
     31 O4         -4.3594    4.8574    5.0173 O.3       1 <0>        -0.3024
     32 C25        -3.8175    5.9584    5.7549 C.3       1 <0>         0.0185
     33 C26        -3.4569    7.0714    4.7617 C.3       1 <0>         0.0174
     34 O5         -2.4945    6.5527    3.8372 O.3       1 <0>        -0.2983
     35 H2          0.6793    1.6392   -2.2331 H         1 <0>         0.1105
     36 H3         -1.0297    1.2840   -2.5816 H         1 <0>         0.0590
     37 H4         -0.5688    1.9876   -1.0128 H         1 <0>         0.0510
     38 H5         -2.4665    1.0975   -1.0771 H         1 <0>         0.1414
     39 H6         -2.1527   -3.4209    0.8801 H         1 <0>         0.1548
     40 H7         -0.1743   -3.7722    1.4542 H         1 <0>         0.0614
     41 H8         -0.6360   -4.4757   -0.1143 H         1 <0>         0.0623
     42 H9          1.0835   -4.2703    0.2975 H         1 <0>         0.1131
     43 H10        -4.0484   -4.3052    0.8224 H         1 <0>         0.0644
     44 H11        -3.5914   -3.5947    2.3891 H         1 <0>         0.0628
     45 H12        -5.2996   -3.9510    2.0378 H         1 <0>         0.1113
     46 H13        -4.5964   -1.2750   -2.4596 H         1 <0>         0.1427
     47 H14        -5.8268   -0.1809   -4.5837 H         1 <0>         0.1486
     48 H15        -6.8953    2.0804   -3.7990 H         1 <0>         0.1746
     49 H16        -5.5438    3.3340   -0.8389 H         1 <0>         0.0811
     50 H17        -7.1823    3.3002   -1.5382 H         1 <0>         0.1237
     51 H18        -7.6913    2.9155    0.7007 H         1 <0>         0.1280
     52 H19        -7.4767    1.2412    0.1392 H         1 <0>         0.1051
     53 H20        -5.6562    2.9497    1.8152 H         1 <0>         0.1368
     54 H21        -6.1237    1.2497    2.0281 H         1 <0>         0.1369
     55 H22        -3.8141    0.7833    2.3934 H         1 <0>         0.1384
     56 H23        -2.6226    1.1132    1.1128 H         1 <0>         0.1483
     57 H24        -1.8086    3.3669    0.7240 H         1 <0>         0.1367
     58 H25        -1.3622    5.5810    1.7000 H         1 <0>         0.1483
     59 H26        -4.6550    2.5724    3.7981 H         1 <0>         0.1434
     60 H27        -4.5585    6.3253    6.4650 H         1 <0>         0.1333
     61 H28        -2.9228    5.6382    6.2889 H         1 <0>         0.0860
     62 H29        -4.3505    7.3874    4.2234 H         1 <0>         0.0854
     63 H30        -3.0313    7.9193    5.2984 H         1 <0>         0.1336
     64 H31        -4.3611    2.2685   -0.0768 H         1 <0>         0.4143
@<TRIPOS>BOND
     1    1    2 1
     2    1   35 1
     3    1   36 1
     4    1   37 1
     5    2    3 1
     6    3    8 ar
     7    3    4 ar
     8    4    5 ar
     9    4   38 1
    10    5    6 ar
    11    5   13 1
    12    6    7 ar
    13    6   11 1
    14    7    8 ar
    15    7   39 1
    16    8    9 1
    17    9   10 1
    18   10   40 1
    19   10   41 1
    20   10   42 1
    21   11   12 1
    22   12   43 1
    23   12   44 1
    24   12   45 1
    25   13   14 1
    26   13   23 1
    27   13   15 1
    28   15   19 1
    29   15   16 2
    30   16   17 1
    31   16   46 1
    32   17   18 2
    33   17   47 1
    34   18   19 1
    35   18   48 1
    36   19   20 1
    37   20   21 1
    38   20   49 1
    39   20   50 1
    40   21   22 1
    41   21   51 1
    42   21   52 1
    43   22   23 1
    44   22   53 1
    45   22   54 1
    46   23   24 1
    47   23   64 1
    48   24   25 1
    49   24   55 1
    50   24   56 1
    51   25   30 ar
    52   25   26 ar
    53   26   27 ar
    54   26   57 1
    55   27   28 ar
    56   27   58 1
    57   28   34 1
    58   28   29 ar
    59   29   30 ar
    60   29   31 1
    61   30   59 1
    62   31   32 1
    63   32   33 1
    64   32   60 1
    65   32   61 1
    66   33   34 1
    67   33   62 1
    68   33   63 1
@<TRIPOS>MOLECULE
ZINC46551298
   66    71     0     0     0
SMALL
USER_CHARGES

@<TRIPOS>ATOM
      1 C1          4.3883    1.4059   -3.7129 C.ar      1 <0>        -0.0672
      2 C2          5.3075    1.3071   -2.6794 C.ar      1 <0>        -0.1353
      3 C3          4.9329    0.6887   -1.5018 C.ar      1 <0>         0.1116
      4 N1          3.7184    0.1959   -1.3553 N.ar      1 <0>        -0.4661
      5 C4          2.8188    0.2718   -2.3163 C.ar      1 <0>         0.0539
      6 C5          3.1213    0.8765   -3.5219 C.ar      1 <0>        -0.1470
      7 C6          1.4450   -0.3080   -2.0980 C.3       1 <0>         0.0570
      8 N2          1.4626   -1.7421   -2.4157 N.4       1 <0>        -0.3778
      9 C7          1.7484   -1.9215   -3.8448 C.3       1 <0>        -0.0274
     10 C8          1.8804   -3.4164   -4.1545 C.3       1 <0>         0.1229
     11 N3          0.6632   -4.0984   -3.6884 N.pl3     1 <0>        -0.6590
     12 C9          0.2105   -3.8451   -2.3118 C.3       1 <0>         0.1219
     13 C10         0.1573   -2.3300   -2.0891 C.3       1 <0>        -0.0213
     14 C11        -0.0356   -4.9541   -4.5208 C.ar      1 <0>         0.4573
     15 C12         0.3555   -6.3162   -4.6470 C.ar      1 <0>        -0.1733
     16 C13         1.4619   -7.0166   -3.9925 C.2       1 <0>        -0.1018
     17 C14         1.6184   -8.3230   -4.2872 C.2       1 <0>        -0.1176
     18 S1          0.3216   -8.6966   -5.4370 S.3       1 <0>         0.1351
     19 C15        -0.4303   -7.0925   -5.5219 C.ar      1 <0>         0.1179
     20 N4         -1.4541   -6.5747   -6.1726 N.ar      1 <0>        -0.4644
     21 C16        -1.7684   -5.3035   -6.0156 C.ar      1 <0>         0.3616
     22 N5         -1.0801   -4.5182   -5.2062 N.ar      1 <0>        -0.5161
     23 C17        -2.9427   -4.7360   -6.7705 C.3       1 <0>         0.1231
     24 N6         -4.1621   -4.8884   -5.9658 N.3       1 <0>        -0.5302
     25 C18        -4.5120   -6.3070   -5.8029 C.3       1 <0>         0.0157
     26 C19        -5.7509   -6.4223   -4.9109 C.3       1 <0>         0.0651
     27 O1         -6.8184   -5.6639   -5.4858 O.3       1 <0>        -0.3807
     28 C20        -6.5121   -4.2776   -5.6581 C.3       1 <0>         0.0640
     29 C21        -5.2809   -4.1406   -6.5577 C.3       1 <0>         0.0194
     30 C22         2.6651   -9.2544   -3.7558 C.3       1 <0>        -0.0496
     31 C23         3.7734   -8.4161   -3.1030 C.3       1 <0>        -0.1154
     32 C24         3.1253   -7.3781   -2.1819 C.3       1 <0>        -0.1263
     33 C25         2.4070   -6.3186   -3.0182 C.3       1 <0>        -0.0537
     34 H1          4.6516    1.8877   -4.6429 H         1 <0>         0.1497
     35 H2          6.3038    1.7081   -2.7935 H         1 <0>         0.1511
     36 H3          5.6430    0.6078   -0.6921 H         1 <0>         0.1719
     37 H4          2.3800    0.9359   -4.3051 H         1 <0>         0.1440
     38 H5          1.1538   -0.1701   -1.0567 H         1 <0>         0.1471
     39 H6          0.7296    0.1989   -2.7455 H         1 <0>         0.1432
     40 H7          0.9347   -1.4988   -4.4340 H         1 <0>         0.1373
     41 H8          2.6803   -1.4147   -4.0955 H         1 <0>         0.1343
     42 H9          1.9916   -3.5593   -5.2293 H         1 <0>         0.1150
     43 H10         2.7491   -3.8225   -3.6362 H         1 <0>         0.0886
     44 H11        -0.7823   -4.2715   -2.1684 H         1 <0>         0.1184
     45 H12         0.9106   -4.2945   -1.6075 H         1 <0>         0.0892
     46 H13        -0.0832   -2.1242   -1.0461 H         1 <0>         0.1423
     47 H14        -0.6083   -1.8949   -2.7315 H         1 <0>         0.1382
     48 H15        -2.7693   -3.6786   -6.9707 H         1 <0>         0.1069
     49 H16        -3.0606   -5.2697   -7.7136 H         1 <0>         0.0717
     50 H17        -4.7242   -6.7439   -6.7788 H         1 <0>         0.0530
     51 H18        -3.6794   -6.8364   -5.3397 H         1 <0>         0.0837
     52 H19        -6.0478   -7.4683   -4.8338 H         1 <0>         0.1013
     53 H20        -5.5221   -6.0342   -3.9183 H         1 <0>         0.0563
     54 H21        -7.3595   -3.7725   -6.1214 H         1 <0>         0.1036
     55 H22        -6.3054   -3.8272   -4.6873 H         1 <0>         0.0593
     56 H23        -5.0095   -3.0885   -6.6454 H         1 <0>         0.0906
     57 H24        -5.5054   -4.5428   -7.5456 H         1 <0>         0.0514
     58 H25         2.2225   -9.9191   -3.0139 H         1 <0>         0.0950
     59 H26         3.0827   -9.8421   -4.5733 H         1 <0>         0.0925
     60 H27         4.4273   -9.0647   -2.5200 H         1 <0>         0.0818
     61 H28         4.3516   -7.9091   -3.8755 H         1 <0>         0.0700
     62 H29         2.4066   -7.8725   -1.5284 H         1 <0>         0.0695
     63 H30         3.8953   -6.9005   -1.5761 H         1 <0>         0.0729
     64 H31         3.1394   -5.7342   -3.5753 H         1 <0>         0.0732
     65 H32         1.8356   -5.6617   -2.3624 H         1 <0>         0.0754
     66 H33         2.1805   -2.1971   -1.8719 H         1 <0>         0.4250
@<TRIPOS>BOND
     1    1    6 ar
     2    1    2 ar
     3    1   34 1
     4    2    3 ar
     5    2   35 1
     6    3    4 ar
     7    3   36 1
     8    4    5 ar
     9    5    6 ar
    10    5    7 1
    11    6   37 1
    12    7    8 1
    13    7   38 1
    14    7   39 1
    15    8   13 1
    16    8    9 1
    17    8   66 1
    18    9   10 1
    19    9   40 1
    20    9   41 1
    21   10   11 1
    22   10   42 1
    23   10   43 1
    24   11   12 1
    25   11   14 1
    26   12   13 1
    27   12   44 1
    28   12   45 1
    29   13   46 1
    30   13   47 1
    31   14   22 ar
    32   14   15 ar
    33   15   19 ar
    34   15   16 1
    35   16   33 1
    36   16   17 2
    37   17   18 1
    38   17   30 1
    39   18   19 1
    40   19   20 ar
    41   20   21 ar
    42   21   22 ar
    43   21   23 1
    44   23   24 1
    45   23   48 1
    46   23   49 1
    47   24   29 1
    48   24   25 1
    49   25   26 1
    50   25   50 1
    51   25   51 1
    52   26   27 1
    53   26   52 1
    54   26   53 1
    55   27   28 1
    56   28   29 1
    57   28   54 1
    58   28   55 1
    59   29   56 1
    60   29   57 1
    61   30   31 1
    62   30   58 1
    63   30   59 1
    64   31   32 1
    65   31   60 1
    66   31   61 1
    67   32   33 1
    68   32   62 1
    69   32   63 1
    70   33   64 1
    71   33   65 1
@<TRIPOS>MOLECULE
ZINC07487258
   57    60     0     0     0
SMALL
USER_CHARGES
2-[[ethyl-[(3-methyl-2-thia-6-azabicyclo[5.4.0]undeca-7,9,11-trien-6-yl)carbonylmethyl]amino]methyl]-3H-quinazolin-4-one
@<TRIPOS>ATOM
      1 C1         -2.9041   -2.2435   -4.7457 C.3       1 <0>        -0.1851
      2 C2         -1.6579   -2.5334   -3.9068 C.3       1 <0>        -0.0158
      3 C3         -0.0893   -1.4684   -5.4128 C.3       1 <0>         0.0490
      4 C4          0.4950   -0.1160   -5.7297 C.2       1 <0>         0.3505
      5 N1          1.1954    0.0289   -6.8848 N.am      1 <0>        -0.6464
      6 H1          1.3095   -0.7539   -7.4965 H         1 <0>         0.4308
      7 C5          1.7401    1.2230   -7.2153 C.2       1 <0>         0.5547
      8 O1          2.3706    1.3668   -8.2465 O.2       1 <0>        -0.4803
      9 C6          1.5409    2.3399   -6.2797 C.ar      1 <0>        -0.1788
     10 C7          2.0597    3.6093   -6.5261 C.ar      1 <0>        -0.0425
     11 C8          1.8425    4.6199   -5.6153 C.ar      1 <0>        -0.1117
     12 C9          1.1123    4.3828   -4.4580 C.ar      1 <0>        -0.0683
     13 C10         0.5912    3.1358   -4.1958 C.ar      1 <0>        -0.0919
     14 C11         0.7982    2.0950   -5.1035 C.ar      1 <0>         0.1366
     15 N2          0.2988    0.8524   -4.8874 N.2       1 <0>        -0.5231
     16 C12         0.3434   -1.4895   -3.0306 C.3       1 <0>        -0.0260
     17 C13        -0.2829   -1.2132   -1.6881 C.2       1 <0>         0.5244
     18 O2         -1.4737   -0.9966   -1.6074 O.2       1 <0>        -0.5140
     19 N3          0.4800   -1.2067   -0.5771 N.am      1 <0>        -0.5377
     20 C14        -0.1128   -0.9391    0.7421 C.3       1 <0>         0.1146
     21 C15        -0.1075    0.5328    1.0599 C.3       1 <0>        -0.1384
     22 C16         1.2657    1.1476    1.2823 C.3       1 <0>        -0.0640
     23 H2          1.8230    0.5394    1.9947 H         1 <0>         0.0938
     24 S1          2.1766    1.2229   -0.2883 S.3       1 <0>        -0.1408
     25 C17         2.7833   -0.4375   -0.4678 C.ar      1 <0>        -0.0974
     26 C18         1.8576   -1.4553   -0.6507 C.ar      1 <0>         0.1199
     27 C19         2.3124   -2.7443   -0.9010 C.ar      1 <0>        -0.1262
     28 C20         3.6715   -2.9991   -0.9263 C.ar      1 <0>        -0.0880
     29 C21         4.5844   -1.9853   -0.7018 C.ar      1 <0>        -0.1019
     30 C22         4.1406   -0.6931   -0.4695 C.ar      1 <0>        -0.0586
     31 C23         1.1038    2.5617    1.8434 C.3       1 <0>        -0.1363
     32 H3         -3.6627   -2.9994   -4.5426 H         1 <0>         0.1100
     33 H4         -3.2944   -1.2589   -4.4882 H         1 <0>         0.0838
     34 H5         -2.6432   -2.2657   -5.8037 H         1 <0>         0.0775
     35 H6         -1.2079   -3.4699   -4.2363 H         1 <0>         0.1333
     36 H7         -1.9377   -2.6146   -2.8565 H         1 <0>         0.1439
     37 H8          0.6990   -2.2206   -5.4416 H         1 <0>         0.1642
     38 H9         -0.8541   -1.7154   -6.1492 H         1 <0>         0.1684
     39 H10         2.6283    3.7996   -7.4244 H         1 <0>         0.1461
     40 H11         2.2431    5.6051   -5.8031 H         1 <0>         0.1438
     41 H12         0.9516    5.1866   -3.7547 H         1 <0>         0.1432
     42 H13         0.0250    2.9633   -3.2924 H         1 <0>         0.1427
     43 H14         1.1045   -0.7373   -3.2382 H         1 <0>         0.1595
     44 H15         0.8026   -2.4780   -3.0208 H         1 <0>         0.1579
     45 H16         0.4583   -1.4702    1.5037 H         1 <0>         0.0896
     46 H17        -1.1406   -1.3018    0.7501 H         1 <0>         0.1061
     47 H18        -0.5903    1.0619    0.2383 H         1 <0>         0.0809
     48 H19        -0.7029    0.6908    1.9592 H         1 <0>         0.0951
     49 H20         1.6075   -3.5439   -1.0747 H         1 <0>         0.1333
     50 H21         4.0235   -4.0008   -1.1241 H         1 <0>         0.1391
     51 H22         5.6427   -2.2004   -0.7070 H         1 <0>         0.1412
     52 H23         4.8473    0.1041   -0.2923 H         1 <0>         0.1459
     53 H24         0.5668    2.5174    2.7909 H         1 <0>         0.0786
     54 H25         2.0871    3.0039    2.0034 H         1 <0>         0.0730
     55 H26         0.5421    3.1714    1.1356 H         1 <0>         0.0656
     56 N4         -0.7048   -1.4155   -4.0700 N.4       1 <0>        -0.3718
     57 H27        -1.2115   -0.5280   -3.9701 H         1 <0>         0.4481
@<TRIPOS>BOND
     1    1    2 1
     2    1   32 1
     3    1   33 1
     4    1   34 1
     5    2   35 1
     6    2   36 1
     7    2   56 1
     8    3    4 1
     9    3   37 1
    10    3   38 1
    11    3   56 1
    12    4   15 2
    13    4    5 1
    14    5    6 1
    15    5    7 am
    16    7    8 2
    17    7    9 1
    18    9   14 ar
    19    9   10 ar
    20   10   11 ar
    21   10   39 1
    22   11   12 ar
    23   11   40 1
    24   12   13 ar
    25   12   41 1
    26   13   14 ar
    27   13   42 1
    28   14   15 1
    29   16   17 1
    30   16   43 1
    31   16   44 1
    32   16   56 1
    33   17   18 2
    34   17   19 am
    35   19   26 1
    36   19   20 1
    37   20   21 1
    38   20   45 1
    39   20   46 1
    40   21   22 1
    41   21   47 1
    42   21   48 1
    43   22   23 1
    44   22   24 1
    45   22   31 1
    46   24   25 1
    47   25   30 ar
    48   25   26 ar
    49   26   27 ar
    50   27   28 ar
    51   27   49 1
    52   28   29 ar
    53   28   50 1
    54   29   30 ar
    55   29   51 1
    56   30   52 1
    57   31   53 1
    58   31   54 1
    59   31   55 1
    60   56   57 1
@<TRIPOS>MOLECULE
ZINC20867479
   47    50     0     0     0
SMALL
USER_CHARGES
2-[[(3aS,6aR)-5,5-dioxo-3a,4,6,6a-tetrahydrothieno[3,4-d]thiazol-2-yl]-(2-fluorophenyl)amino]-N-(4-fluorophenyl)acetamide
@<TRIPOS>ATOM
      1 C1          5.2231   -6.6335    2.4222 C.ar      1 <0>        -0.1192
      2 C2          5.9707   -5.6609    3.0603 C.ar      1 <0>        -0.0450
      3 C3          6.0021   -4.3711    2.5628 C.ar      1 <0>        -0.1488
      4 C4          5.2886   -4.0513    1.4221 C.ar      1 <0>         0.1445
      5 C5          4.5322   -5.0268    0.7816 C.ar      1 <0>         0.0151
      6 C6          4.5044   -6.3202    1.2848 C.ar      1 <0>        -0.0633
      7 N1          3.8052   -4.7065   -0.3712 N.pl3     1 <0>        -0.4410
      8 C7          2.4215   -4.2387   -0.2582 C.3       1 <0>         0.0662
      9 C8          2.4073   -2.7367   -0.1370 C.2       1 <0>         0.4810
     10 O1          3.4504   -2.1178   -0.1442 O.2       1 <0>        -0.4868
     11 N2          1.2355   -2.0810   -0.0205 N.am      1 <0>        -0.6710
     12 C9          1.2138   -0.6809   -0.0190 C.ar      1 <0>         0.1254
     13 C10         2.1372    0.0295   -0.7744 C.ar      1 <0>        -0.0913
     14 C11         2.1137    1.4104   -0.7719 C.ar      1 <0>        -0.1341
     15 C12         1.1702    2.0865   -0.0168 C.ar      1 <0>         0.0981
     16 C13         0.2484    1.3799    0.7372 C.ar      1 <0>        -0.1310
     17 C14         0.2685   -0.0011    0.7375 C.ar      1 <0>        -0.1069
     18 F1          1.1488    3.4373   -0.0158 F         1 <0>        -0.1318
     19 C15         4.3908   -4.8311   -1.6113 C.cat     1 <0>         0.4811
     20 N3          3.8401   -4.5755   -2.7959 N.pl3     1 <0>        -0.6443
     21 C16         4.6130   -4.8938   -3.9488 C.3       1 <0>         0.0839
     22 H1          4.1593   -5.8953   -3.9824 H         1 <0>         0.1490
     23 C17         4.3274   -4.4231   -5.3615 C.3       1 <0>        -0.5893
     24 S1          5.8907   -4.9528   -6.2037 S.o2      1 <0>         2.3858
     25 O2          6.5181   -3.8137   -6.7764 O.2       1 <0>        -0.8885
     26 O3          5.6186   -6.0862   -7.0165 O.2       1 <0>        -0.8889
     27 C18         6.8584   -5.4931   -4.7152 C.3       1 <0>        -0.5682
     28 C19         6.1384   -4.6521   -3.6544 C.3       1 <0>        -0.1062
     29 H2          6.6131   -3.6747   -3.8259 H         1 <0>         0.1879
     30 S2          6.0634   -5.3821   -1.9812 S.3       1 <0>         0.1070
     31 F2          5.3228   -2.7923    0.9333 F         1 <0>        -0.0989
     32 H3          5.2013   -7.6399    2.8135 H         1 <0>         0.1513
     33 H4          6.5317   -5.9093    3.9491 H         1 <0>         0.1521
     34 H5          6.5875   -3.6138    3.0631 H         1 <0>         0.1551
     35 H6          3.9210   -7.0810    0.7875 H         1 <0>         0.1460
     36 H7          1.8584   -4.5396   -1.1540 H         1 <0>         0.1303
     37 H8          1.9559   -4.6830    0.6339 H         1 <0>         0.1563
     38 H9          0.2962   -2.6457    0.0734 H         1 <0>         0.4428
     39 H10         2.8730   -0.4974   -1.3637 H         1 <0>         0.1366
     40 H11         2.8346    1.9634   -1.3558 H         1 <0>         0.1420
     41 H12        -0.4867    1.9090    1.3255 H         1 <0>         0.1459
     42 H13        -0.4508   -0.5519    1.3254 H         1 <0>         0.1398
     43 H14         3.4248   -4.9252   -5.7398 H         1 <0>         0.1694
     44 H15         4.1682   -3.3347   -5.3602 H         1 <0>         0.1628
     45 H16         6.7543   -6.5804   -4.5851 H         1 <0>         0.1659
     46 H17         7.9197   -5.2406   -4.8563 H         1 <0>         0.1757
     47 H18         2.8323   -4.1381   -2.8510 H         1 <0>         0.4574
@<TRIPOS>BOND
     1    1    6 ar
     2    1    2 ar
     3    1   32 1
     4    2    3 ar
     5    2   33 1
     6    3    4 ar
     7    3   34 1
     8    4    5 ar
     9    4   31 1
    10    5    6 ar
    11    5    7 1
    12    6   35 1
    13    7    8 1
    14    7   19 1
    15    8    9 1
    16    8   36 1
    17    8   37 1
    18    9   10 2
    19    9   11 am
    20   11   12 1
    21   11   38 1
    22   12   17 ar
    23   12   13 ar
    24   13   14 ar
    25   13   39 1
    26   14   15 ar
    27   14   40 1
    28   15   16 ar
    29   15   18 1
    30   16   17 ar
    31   16   41 1
    32   17   42 1
    33   19   30 1
    34   19   20 2
    35   20   21 1
    36   20   47 1
    37   21   22 1
    38   21   28 1
    39   21   23 1
    40   23   24 1
    41   23   43 1
    42   23   44 1
    43   24   25 2
    44   24   26 2
    45   24   27 1
    46   27   28 1
    47   27   45 1
    48   27   46 1
    49   28   29 1
    50   28   30 1
@<TRIPOS>MOLECULE
ZINC33299529
   60    64     0     0     0
SMALL
USER_CHARGES
1-(1-benzylpyrrolo[3,2-c]pyridin-4-yl)-N-(3-pyridylmethyl)piperidine-4-carboxamide
@<TRIPOS>ATOM
      1 C1         -0.0559    4.2672    0.0247 C.ar      1 <0>        -0.0991
      2 C2          1.1505    3.5924    0.0100 C.ar      1 <0>        -0.1154
      3 C3          1.1693    2.2102    0.0028 C.ar      1 <0>        -0.0952
      4 C4         -0.0184    1.5028    0.0103 C.ar      1 <0>        -0.1337
      5 C5         -1.2248    2.1776    0.0197 C.ar      1 <0>        -0.1016
      6 C6         -1.2435    3.5598    0.0322 C.ar      1 <0>        -0.1176
      7 C7          0.0021   -0.0041    0.0020 C.3       1 <0>         0.1360
      8 N1          0.0219   -0.4998    1.3805 N.pl3     1 <0>        -0.4365
      9 C8          1.1510   -0.8424    2.0776 C.2       1 <0>         0.0727
     10 C9          0.8175   -1.2570    3.3107 C.2       1 <0>        -0.1523
     11 C10        -0.6392   -1.1726    3.4091 C.ar      1 <0>        -0.1583
     12 C11        -1.0853   -0.6842    2.1665 C.ar      1 <0>         0.1802
     13 C12        -2.4571   -0.4988    1.9856 C.ar      1 <0>        -0.1335
     14 C13        -3.3088   -0.7918    3.0120 C.ar      1 <0>         0.1144
     15 N2         -2.8682   -1.2471    4.1746 N.ar      1 <0>        -0.5288
     16 C14        -1.5818   -1.4529    4.4073 C.ar      1 <0>         0.4287
     17 N3         -1.1661   -1.9303    5.6425 N.pl3     1 <0>        -0.4651
     18 C15        -0.1877   -1.0228    6.2553 C.3       1 <0>         0.0506
     19 C16         0.3555   -1.6493    7.5415 C.3       1 <0>        -0.1144
     20 C17        -0.8044   -1.9069    8.5074 C.3       1 <0>        -0.1130
     21 C18        -1.8323   -2.8154    7.8273 C.3       1 <0>        -0.0968
     22 C19        -2.3121   -2.1551    6.5328 C.3       1 <0>         0.0154
     23 C20        -0.2837   -2.5788    9.7518 C.2       1 <0>         0.5176
     24 O1         -0.6937   -3.6764   10.0651 O.2       1 <0>        -0.5327
     25 N4          0.6375   -1.9600   10.5166 N.am      1 <0>        -0.7345
     26 C21         1.1436   -2.6131   11.7263 C.3       1 <0>         0.1674
     27 C22         2.1551   -1.7180   12.3947 C.ar      1 <0>        -0.1670
     28 C23         3.5000   -1.8137   12.0705 C.ar      1 <0>        -0.0560
     29 C24         4.3940   -0.9669   12.7073 C.ar      1 <0>        -0.1725
     30 C25         3.9199   -0.0687   13.6448 C.ar      1 <0>         0.1107
     31 N5          2.6343   -0.0089   13.9317 N.ar      1 <0>        -0.4833
     32 C26         1.7549   -0.7956   13.3425 C.ar      1 <0>         0.1192
     33 H1         -0.0705    5.3471    0.0299 H         1 <0>         0.1303
     34 H2          2.0784    4.1450    0.0037 H         1 <0>         0.1309
     35 H3          2.1118    1.6830   -0.0091 H         1 <0>         0.1259
     36 H4         -2.1527    1.6249    0.0211 H         1 <0>         0.1204
     37 H5         -2.1860    4.0870    0.0434 H         1 <0>         0.1295
     38 H6         -0.8959   -0.3802   -0.5100 H         1 <0>         0.1105
     39 H7          0.9002   -0.3557   -0.5270 H         1 <0>         0.1203
     40 H8          2.1586   -0.7873    1.6927 H         1 <0>         0.1936
     41 H9          1.4958   -1.5898    4.0825 H         1 <0>         0.1719
     42 H10        -2.8397   -0.1281    1.0462 H         1 <0>         0.1699
     43 H11        -4.3700   -0.6479    2.8719 H         1 <0>         0.2023
     44 H12         0.6416   -0.8498    5.5536 H         1 <0>         0.1122
     45 H13        -0.6739   -0.0648    6.4916 H         1 <0>         0.0705
     46 H14         0.8550   -2.6001    7.3037 H         1 <0>         0.0918
     47 H15         1.0774   -0.9624    8.0075 H         1 <0>         0.0945
     48 H16        -1.2740   -0.9551    8.7964 H         1 <0>         0.1035
     49 H17        -1.3680   -3.7854    7.5960 H         1 <0>         0.0952
     50 H18        -2.6879   -2.9698    8.5012 H         1 <0>         0.0985
     51 H19        -2.7883   -1.1918    6.7678 H         1 <0>         0.0727
     52 H20        -3.0401   -2.8122    6.0346 H         1 <0>         0.1014
     53 H21         1.0093   -0.9645   10.2324 H         1 <0>         0.4211
     54 H22         0.3088   -2.8029   12.4170 H         1 <0>         0.0818
     55 H23         1.6200   -3.5670   11.4560 H         1 <0>         0.0802
     56 H24         3.8423   -2.5281   11.3364 H         1 <0>         0.1360
     57 H25         5.4482   -1.0113   12.4767 H         1 <0>         0.1400
     58 H26         4.6104    0.5916   14.1484 H         1 <0>         0.1604
     59 H27         0.7098   -0.7177   13.6036 H         1 <0>         0.1560
     60 H28        -3.5794   -1.4668    4.9845 H         1 <0>         0.4732
@<TRIPOS>BOND
     1    1    6 ar
     2    1    2 ar
     3    1   33 1
     4    2    3 ar
     5    2   34 1
     6    3    4 ar
     7    3   35 1
     8    4    5 ar
     9    4    7 1
    10    5    6 ar
    11    5   36 1
    12    6   37 1
    13    7    8 1
    14    7   38 1
    15    7   39 1
    16    8   12 1
    17    8    9 1
    18    9   10 2
    19    9   40 1
    20   10   11 1
    21   10   41 1
    22   11   16 ar
    23   11   12 ar
    24   12   13 ar
    25   13   14 ar
    26   13   42 1
    27   14   15 ar
    28   14   43 1
    29   15   16 ar
    30   15   60 1
    31   16   17 1
    32   17   22 1
    33   17   18 1
    34   18   19 1
    35   18   44 1
    36   18   45 1
    37   19   20 1
    38   19   46 1
    39   19   47 1
    40   20   21 1
    41   20   23 1
    42   20   48 1
    43   21   22 1
    44   21   49 1
    45   21   50 1
    46   22   51 1
    47   22   52 1
    48   23   24 2
    49   23   25 am
    50   25   26 1
    51   25   53 1
    52   26   27 1
    53   26   54 1
    54   26   55 1
    55   27   32 ar
    56   27   28 ar
    57   28   29 ar
    58   28   56 1
    59   29   30 ar
    60   29   57 1
    61   30   31 ar
    62   30   58 1
    63   31   32 ar
    64   32   59 1
@<TRIPOS>MOLECULE
ZINC05057799
   60    62     0     0     0
SMALL
USER_CHARGES

@<TRIPOS>ATOM
      1 C1         -0.1690    1.5309   -0.2344 C.3       1 <0>        -0.0527
      2 N1         -0.0378    0.0797   -0.0478 N.4       1 <0>        -0.3799
      3 C2         -1.3697   -0.5131    0.1331 C.3       1 <0>        -0.0255
      4 C3         -1.9736   -0.0185    1.4490 C.3       1 <0>         0.0572
      5 H1         -1.2811   -0.2099    2.2686 H         1 <0>         0.1033
      6 C4         -3.3121   -0.7403    1.7149 C.3       1 <0>        -0.1468
      7 C5         -4.1900    0.3986    2.3015 C.3       1 <0>        -0.1569
      8 C6         -3.6582    1.6184    1.5077 C.3       1 <0>         0.0464
      9 O1         -2.2466    1.3849    1.3611 O.3       1 <0>        -0.3812
     10 C7          0.6042   -0.5100   -1.2302 C.3       1 <0>         0.0237
     11 C8          0.7392   -2.0220   -1.0362 C.3       1 <0>        -0.1580
     12 C9          1.3773   -2.6380   -2.2853 C.3       1 <0>         0.1159
     13 N2          2.6462   -1.9488   -2.5569 N.am      1 <0>        -0.6201
     14 C10         2.6440   -0.4841   -2.6718 C.3       1 <0>         0.1077
     15 C11         1.9916    0.1078   -1.4184 C.3       1 <0>        -0.1596
     16 C12         3.7904   -2.6470   -2.6976 C.2       1 <0>         0.5167
     17 O2          3.7791   -3.8558   -2.6002 O.2       1 <0>        -0.5167
     18 C13         5.0839   -1.9255   -2.9760 C.3       1 <0>         0.1015
     19 N3          6.1726   -2.8996   -3.0854 N.am      1 <0>        -0.7205
     20 C14         7.4293   -2.4806   -3.3336 C.2       1 <0>         0.5566
     21 O3          7.6597   -1.2931   -3.4669 O.2       1 <0>        -0.5421
     22 C15         8.5172   -3.4540   -3.4429 C.2       1 <0>        -0.2214
     23 C16         9.7746   -3.0348   -3.6913 C.2       1 <0>        -0.0022
     24 C17        10.8682   -4.0132   -3.8012 C.ar      1 <0>        -0.0817
     25 C18        10.6062   -5.3793   -3.6544 C.ar      1 <0>        -0.0866
     26 C19        11.6354   -6.2902   -3.7590 C.ar      1 <0>        -0.1128
     27 C20        12.9269   -5.8554   -4.0090 C.ar      1 <0>        -0.0211
     28 C21        13.1938   -4.5038   -4.1556 C.ar      1 <0>        -0.1123
     29 C22        12.1736   -3.5820   -4.0587 C.ar      1 <0>        -0.0779
     30 Cl1        14.2171   -7.0097   -4.1387 Cl        1 <0>        -0.0589
     31 H2          0.7994    1.9514   -0.5055 H         1 <0>         0.1198
     32 H3         -0.8876    1.7315   -1.0291 H         1 <0>         0.1192
     33 H4         -0.5163    1.9866    0.6929 H         1 <0>         0.1431
     34 H5         -2.0138   -0.2191   -0.6956 H         1 <0>         0.1344
     35 H6         -1.2834   -1.5994    0.1586 H         1 <0>         0.1407
     36 H7         -3.7391   -1.1202    0.7867 H         1 <0>         0.0883
     37 H8         -3.1824   -1.5431    2.4406 H         1 <0>         0.0984
     38 H9         -5.2463    0.2262    2.0956 H         1 <0>         0.0965
     39 H10        -4.0145    0.5189    3.3706 H         1 <0>         0.0878
     40 H11        -4.1371    1.6715    0.5300 H         1 <0>         0.0712
     41 H12        -3.8327    2.5383    2.0658 H         1 <0>         0.0996
     42 H13        -0.0050   -0.3101   -2.1117 H         1 <0>         0.1401
     43 H14         1.3687   -2.2228   -0.1693 H         1 <0>         0.0935
     44 H15        -0.2473   -2.4581   -0.8790 H         1 <0>         0.1018
     45 H16         1.5665   -3.6978   -2.1141 H         1 <0>         0.1146
     46 H17         0.7065   -2.5172   -3.1358 H         1 <0>         0.0838
     47 H18         3.6689   -0.1226   -2.7556 H         1 <0>         0.1099
     48 H19         2.0764   -0.1876   -3.5538 H         1 <0>         0.0895
     49 H20         1.8966    1.1876   -1.5331 H         1 <0>         0.1073
     50 H21         2.6093   -0.1131   -0.5479 H         1 <0>         0.0946
     51 H22         4.9969   -1.3713   -3.9106 H         1 <0>         0.1034
     52 H23         5.2963   -1.2331   -2.1614 H         1 <0>         0.1009
     53 H24         5.9890   -3.8461   -2.9792 H         1 <0>         0.4147
     54 H25         8.3128   -4.5078   -3.3247 H         1 <0>         0.1332
     55 H26         9.9790   -1.9809   -3.8096 H         1 <0>         0.1404
     56 H27         9.6000   -5.7195   -3.4591 H         1 <0>         0.1372
     57 H28        11.4346   -7.3452   -3.6455 H         1 <0>         0.1392
     58 H29        14.2030   -4.1720   -4.3503 H         1 <0>         0.1405
     59 H30        12.3823   -2.5291   -4.1776 H         1 <0>         0.1401
     60 H31         0.5261   -0.1048    0.7683 H         1 <0>         0.4217
@<TRIPOS>BOND
     1    1    2 1
     2    1   31 1
     3    1   32 1
     4    1   33 1
     5    2    3 1
     6    2   10 1
     7    2   60 1
     8    3    4 1
     9    3   34 1
    10    3   35 1
    11    4    5 1
    12    4    9 1
    13    4    6 1
    14    6    7 1
    15    6   36 1
    16    6   37 1
    17    7    8 1
    18    7   38 1
    19    7   39 1
    20    8    9 1
    21    8   40 1
    22    8   41 1
    23   10   15 1
    24   10   11 1
    25   10   42 1
    26   11   12 1
    27   11   43 1
    28   11   44 1
    29   12   13 1
    30   12   45 1
    31   12   46 1
    32   13   14 1
    33   13   16 am
    34   14   15 1
    35   14   47 1
    36   14   48 1
    37   15   49 1
    38   15   50 1
    39   16   17 2
    40   16   18 1
    41   18   19 1
    42   18   51 1
    43   18   52 1
    44   19   20 am
    45   19   53 1
    46   20   21 2
    47   20   22 1
    48   22   23 2
    49   22   54 1
    50   23   24 1
    51   23   55 1
    52   24   29 ar
    53   24   25 ar
    54   25   26 ar
    55   25   56 1
    56   26   27 ar
    57   26   57 1
    58   27   28 ar
    59   27   30 1
    60   28   29 ar
    61   28   58 1
    62   29   59 1
@<TRIPOS>MOLECULE
ZINC63791327
   55    58     0     0     0
SMALL
USER_CHARGES

@<TRIPOS>ATOM
      1 C1         -0.0163    1.3482    0.0095 C.ar      1 <0>        -0.1503
      2 C2          1.1658    2.1014    0.0022 C.ar      1 <0>         0.0547
      3 C3          2.3912    1.5352   -0.0125 C.ar      1 <0>        -0.2097
      4 C4          2.5288    0.1198   -0.0218 C.ar      1 <0>         0.3278
      5 N1          3.5868   -0.6543   -0.0369 N.pl3     1 <0>        -0.5848
      6 C5          3.1432   -2.0528   -0.0408 C.3       1 <0>         0.0601
      7 C6          1.6315   -2.0084   -0.0255 C.2       1 <0>         0.0708
      8 C7          1.2951   -0.6984   -0.0144 C.ar      1 <0>        -0.1674
      9 C8          0.0021   -0.0041    0.0020 C.ar      1 <0>        -0.0125
     10 C9          0.6905   -3.1856   -0.0239 C.3       1 <0>        -0.1051
     11 C10         0.4565   -3.6534   -1.4617 C.3       1 <0>         0.1251
     12 N2         -0.4583   -4.7977   -1.4602 N.am      1 <0>        -0.7373
     13 C11        -0.8107   -5.3803   -2.6233 C.2       1 <0>         0.5236
     14 O1         -0.3706   -4.9572   -3.6712 O.2       1 <0>        -0.5248
     15 C12        -1.7517   -6.5574   -2.6217 C.3       1 <0>        -0.1051
     16 C13        -1.1397   -7.6982   -1.8056 C.3       1 <0>        -0.1228
     17 C14        -2.1139   -8.8802   -1.7772 C.3       1 <0>         0.1167
     18 N3         -2.4572   -9.2432   -3.1589 N.pl3     1 <0>        -0.9970
     19 C15        -2.9694   -8.1994   -4.0572 C.3       1 <0>         0.1159
     20 C16        -1.9856   -7.0251   -4.0599 C.3       1 <0>        -0.1131
     21 S1         -2.2700  -10.7993   -3.6938 S.o2      1 <0>         2.6916
     22 O2         -2.1311  -10.7292   -5.1062 O.2       1 <0>        -0.9451
     23 O3         -1.2879  -11.3997   -2.8606 O.2       1 <0>        -0.9423
     24 C17        -3.7835  -11.6444   -3.3779 C.ar      1 <0>        -0.7180
     25 C18        -4.5473  -12.1115   -4.4309 C.ar      1 <0>         0.0039
     26 C19        -5.7346  -12.7745   -4.1834 C.ar      1 <0>        -0.1460
     27 C20        -6.1596  -12.9713   -2.8824 C.ar      1 <0>        -0.0336
     28 C21        -5.3974  -12.5057   -1.8281 C.ar      1 <0>        -0.1707
     29 C22        -4.2051  -11.8459   -2.0747 C.ar      1 <0>         0.1924
     30 F1         -3.4567  -11.3943   -1.0446 F         1 <0>        -0.1239
     31 H1         -0.9665    1.8612    0.0259 H         1 <0>         0.1581
     32 H2          1.0933    3.1789    0.0083 H         1 <0>         0.1613
     33 H3          3.2717    2.1606   -0.0175 H         1 <0>         0.1609
     34 H4          3.4952   -2.5561   -0.9413 H         1 <0>         0.1750
     35 H5          3.5129   -2.5667    0.8465 H         1 <0>         0.1752
     36 H6         -0.9210   -0.5647    0.0081 H         1 <0>         0.1605
     37 H7          1.1268   -3.9987    0.5563 H         1 <0>         0.1193
     38 H8         -0.2596   -2.8905    0.4214 H         1 <0>         0.1161
     39 H9          0.0203   -2.8403   -2.0419 H         1 <0>         0.0784
     40 H10         1.4067   -3.9484   -1.9070 H         1 <0>         0.0777
     41 H11        -0.8103   -5.1361   -0.6220 H         1 <0>         0.4062
     42 H12        -2.7020   -6.2620   -2.1768 H         1 <0>         0.1058
     43 H13        -0.2015   -8.0109   -2.2640 H         1 <0>         0.0788
     44 H14        -0.9518   -7.3572   -0.7875 H         1 <0>         0.0812
     45 H15        -1.6433   -9.7297   -1.2824 H         1 <0>         0.1035
     46 H16        -3.0179   -8.5958   -1.2388 H         1 <0>         0.0761
     47 H17        -3.0633   -8.5998   -5.0666 H         1 <0>         0.1025
     48 H18        -3.9432   -7.8595   -3.7046 H         1 <0>         0.0752
     49 H19        -2.3998   -6.2050   -4.6464 H         1 <0>         0.0881
     50 H20        -1.0395   -7.3441   -4.4972 H         1 <0>         0.0799
     51 H21        -4.2166  -11.9580   -5.4474 H         1 <0>         0.1544
     52 H22        -6.3310  -13.1388   -5.0068 H         1 <0>         0.1441
     53 H23        -7.0878  -13.4889   -2.6902 H         1 <0>         0.1451
     54 H24        -5.7297  -12.6593   -0.8121 H         1 <0>         0.1474
     55 H25         4.5087   -0.3528   -0.0446 H         1 <0>         0.4563
@<TRIPOS>BOND
     1    1    9 ar
     2    1    2 ar
     3    1   31 1
     4    2    3 ar
     5    2   32 1
     6    3    4 ar
     7    3   33 1
     8    4    8 ar
     9    4    5 2
    10    5    6 1
    11    5   55 1
    12    6    7 1
    13    6   34 1
    14    6   35 1
    15    7    8 2
    16    7   10 1
    17    8    9 ar
    18    9   36 1
    19   10   11 1
    20   10   37 1
    21   10   38 1
    22   11   12 1
    23   11   39 1
    24   11   40 1
    25   12   13 am
    26   12   41 1
    27   13   14 2
    28   13   15 1
    29   15   20 1
    30   15   16 1
    31   15   42 1
    32   16   17 1
    33   16   43 1
    34   16   44 1
    35   17   18 1
    36   17   45 1
    37   17   46 1
    38   18   19 1
    39   18   21 1
    40   19   20 1
    41   19   47 1
    42   19   48 1
    43   20   49 1
    44   20   50 1
    45   21   22 2
    46   21   23 2
    47   21   24 1
    48   24   29 ar
    49   24   25 ar
    50   25   26 ar
    51   25   51 1
    52   26   27 ar
    53   26   52 1
    54   27   28 ar
    55   27   53 1
    56   28   29 ar
    57   28   54 1
    58   29   30 1
@<TRIPOS>MOLECULE
ZINC04196499
   53    57     0     0     0
SMALL
USER_CHARGES
3-(4-benzooxazol-2-yl-1-piperidyl)-1-[4-chloro-3-(trifluoromethyl)phenyl]-pyrrolidine-2,5-dione
@<TRIPOS>ATOM
      1 C1         -2.4529    0.5795    2.0470 C.ar      1 <0>        -0.1140
      2 C2         -2.4054    1.9564    1.8851 C.ar      1 <0>        -0.0769
      3 C3         -1.2124    2.5863    1.5988 C.ar      1 <0>        -0.0977
      4 C4         -0.0521    1.8392    1.4629 C.ar      1 <0>         0.0178
      5 C5         -0.0959    0.4463    1.6259 C.ar      1 <0>         0.0121
      6 C6         -1.3098   -0.1773    1.9197 C.ar      1 <0>        -0.0539
      7 N1          1.1744   -0.0049    1.4418 N.2       1 <0>        -0.4512
      8 C7          1.9459    1.0087    1.1869 C.2       1 <0>         0.2223
      9 O1          1.2351    2.1473    1.1913 O.3       1 <0>        -0.2142
     10 C8          3.4268    0.9189    0.9228 C.3       1 <0>        -0.0009
     11 C9          4.1839    1.7423    1.9685 C.3       1 <0>        -0.1398
     12 C10         5.6819    1.6983    1.6583 C.3       1 <0>        -0.0189
     13 C11         5.2436    1.4347   -0.7104 C.3       1 <0>        -0.0076
     14 C12         3.7324    1.4721   -0.4719 C.3       1 <0>        -0.1434
     15 C13         7.3612    2.3392    0.0367 C.3       1 <0>        -0.0035
     16 H1          7.5311    2.7633   -0.9530 H         1 <0>         0.1961
     17 C14         8.0646    3.1850    1.1177 C.3       1 <0>        -0.1719
     18 C15         9.0503    2.2190    1.7381 C.2       1 <0>         0.5202
     19 O2          9.8163    2.4804    2.6406 O.2       1 <0>        -0.4146
     20 N2          8.9426    1.0301    1.1322 N.am      1 <0>        -0.5170
     21 C16         8.0233    0.9843    0.1599 C.2       1 <0>         0.5185
     22 O3          7.7625    0.0113   -0.5145 O.2       1 <0>        -0.4170
     23 C17         9.7283   -0.0761    1.4864 C.ar      1 <0>         0.0883
     24 C18         9.5673   -0.6741    2.7290 C.ar      1 <0>        -0.0498
     25 C19        10.3392   -1.7660    3.0739 C.ar      1 <0>        -0.0941
     26 C20        11.2798   -2.2581    2.1858 C.ar      1 <0>         0.0264
     27 C21        11.4455   -1.6609    0.9488 C.ar      1 <0>        -0.1634
     28 C22        10.6723   -0.5715    0.5974 C.ar      1 <0>        -0.0357
     29 C23        12.4705   -2.1992   -0.0159 C.3       1 <0>         0.5107
     30 F1         12.4529   -1.4366   -1.1886 F         1 <0>        -0.1718
     31 F2         13.7406   -2.1298    0.5665 F         1 <0>        -0.1617
     32 F3         12.1696   -3.5309   -0.3211 F         1 <0>        -0.1621
     33 Cl1        12.2529   -3.6271    2.6245 Cl        1 <0>        -0.0116
     34 H2         -3.3926    0.0980    2.2739 H         1 <0>         0.1452
     35 H3         -3.3086    2.5397    1.9873 H         1 <0>         0.1481
     36 H4         -1.1831    3.6587    1.4742 H         1 <0>         0.1394
     37 H5         -1.3520   -1.2489    2.0470 H         1 <0>         0.1411
     38 H6          3.7445   -0.1223    0.9793 H         1 <0>         0.1336
     39 H7          3.8373    2.7753    1.9389 H         1 <0>         0.1050
     40 H8          4.0041    1.3257    2.9596 H         1 <0>         0.1264
     41 H9          6.0309    0.6666    1.7027 H         1 <0>         0.1349
     42 H10         6.2224    2.2963    2.3921 H         1 <0>         0.1401
     43 H11         5.5946    0.4043   -0.6548 H         1 <0>         0.1469
     44 H12         5.4657    1.8412   -1.6970 H         1 <0>         0.1461
     45 H13         3.2302    0.8626   -1.2232 H         1 <0>         0.1269
     46 H14         3.3778    2.5005   -0.5412 H         1 <0>         0.1025
     47 H15         8.5867    4.0282    0.6655 H         1 <0>         0.1672
     48 H16         7.3468    3.5311    1.8613 H         1 <0>         0.1473
     49 H17         8.8363   -0.2879    3.4239 H         1 <0>         0.1492
     50 H18        10.2114   -2.2340    4.0388 H         1 <0>         0.1644
     51 H19        10.8019   -0.1056   -0.3683 H         1 <0>         0.1547
     52 N3          5.9116    2.2667    0.3131 N.4       1 <0>        -0.3813
     53 H20         5.5182    3.2145    0.2805 H         1 <0>         0.4425
@<TRIPOS>BOND
     1    1    6 ar
     2    1    2 ar
     3    1   34 1
     4    2    3 ar
     5    2   35 1
     6    3    4 ar
     7    3   36 1
     8    4    9 1
     9    4    5 ar
    10    5    6 ar
    11    5    7 1
    12    6   37 1
    13    7    8 2
    14    8    9 1
    15    8   10 1
    16   10   14 1
    17   10   11 1
    18   10   38 1
    19   11   12 1
    20   11   39 1
    21   11   40 1
    22   12   41 1
    23   12   42 1
    24   12   52 1
    25   13   14 1
    26   13   43 1
    27   13   44 1
    28   13   52 1
    29   14   45 1
    30   14   46 1
    31   15   16 1
    32   15   21 1
    33   15   17 1
    34   15   52 1
    35   17   18 1
    36   17   47 1
    37   17   48 1
    38   18   19 2
    39   18   20 am
    40   20   21 am
    41   20   23 1
    42   21   22 2
    43   23   28 ar
    44   23   24 ar
    45   24   25 ar
    46   24   49 1
    47   25   26 ar
    48   25   50 1
    49   26   27 ar
    50   26   33 1
    51   27   28 ar
    52   27   29 1
    53   28   51 1
    54   29   30 1
    55   29   31 1
    56   29   32 1
    57   52   53 1
@<TRIPOS>MOLECULE
ZINC12429012
   71    76     0     0     0
SMALL
USER_CHARGES
[4-(1-adamantyl)piperazin-1-yl]-[4-(1-piperidylsulfonyl)phenyl]methanone
@<TRIPOS>ATOM
      1 C1         -1.3920    3.2844   -0.0973 C.ar      1 <0>        -0.1211
      2 C2         -2.6183    3.9163   -0.0858 C.ar      1 <0>        -0.0190
      3 C3         -3.7790    3.1779    0.0619 C.ar      1 <0>        -0.6518
      4 C4         -3.7190    1.8018    0.1921 C.ar      1 <0>        -0.0143
      5 C5         -2.4995    1.1569    0.1755 C.ar      1 <0>        -0.0855
      6 C6         -1.3247    1.8959    0.0274 C.ar      1 <0>        -0.0862
      7 C7         -0.0144    1.2113    0.0087 C.2       1 <0>         0.5695
      8 O1          0.1606    0.2535   -0.7189 O.2       1 <0>        -0.4919
      9 N1          0.9878    1.6528    0.7943 N.am      1 <0>        -0.6268
     10 C8          0.8259    2.8613    1.6168 C.3       1 <0>         0.0727
     11 C9          1.2322    2.5206    3.0594 C.3       1 <0>        -0.0240
     12 C10         2.6258    0.6804    2.3157 C.3       1 <0>        -0.0212
     13 C11         2.2744    0.9422    0.8473 C.3       1 <0>         0.0898
     14 C12         3.0812    1.7688    4.4301 C.3       1 <0>         0.0644
     15 C13         2.2104    0.7434    5.1590 C.3       1 <0>        -0.1214
     16 C14         2.7276    0.5581    6.5869 C.3       1 <0>        -0.0797
     17 C15         2.6694    1.8953    7.3280 C.3       1 <0>        -0.1189
     18 C16         3.5402    2.9207    6.5991 C.3       1 <0>        -0.0789
     19 C17         3.0229    3.1060    5.1712 C.3       1 <0>        -0.1274
     20 C18         4.9865    2.4235    6.5571 C.3       1 <0>        -0.1196
     21 C19         5.0448    1.0862    5.8160 C.3       1 <0>        -0.0790
     22 C20         4.1740    0.0609    6.5448 C.3       1 <0>        -0.1195
     23 C21         4.5275    1.2716    4.3881 C.3       1 <0>        -0.1277
     24 S1         -5.3407    3.9937    0.0835 S.o2      1 <0>         2.6834
     25 O2         -5.1649    5.2256   -0.6026 O.2       1 <0>        -0.9438
     26 O3         -6.3072    3.0311   -0.3147 O.2       1 <0>        -0.9424
     27 N2         -5.6729    4.3735    1.6607 N.pl3     1 <0>        -0.9937
     28 C22        -6.4082    3.4339    2.5181 C.3       1 <0>         0.1152
     29 C23        -5.5855    3.1885    3.7921 C.3       1 <0>        -0.1339
     30 C24        -5.2717    4.5311    4.4562 C.3       1 <0>        -0.1208
     31 C25        -4.4384    5.3912    3.5032 C.3       1 <0>        -0.1328
     32 C26        -5.2432    5.6591    2.2276 C.3       1 <0>         0.1157
     33 H1         -0.4863    3.8624   -0.2077 H         1 <0>         0.1404
     34 H2         -2.6721    4.9901   -0.1877 H         1 <0>         0.1516
     35 H3         -4.6287    1.2312    0.3066 H         1 <0>         0.1528
     36 H4         -2.4540    0.0826    0.2766 H         1 <0>         0.1441
     37 H5          1.4653    3.6552    1.2309 H         1 <0>         0.1021
     38 H6         -0.2155    3.1826    1.5946 H         1 <0>         0.1376
     39 H7          0.5307    1.7983    3.4769 H         1 <0>         0.1362
     40 H8          1.2223    3.4281    3.6631 H         1 <0>         0.1451
     41 H9          1.9049   -0.0163    2.7436 H         1 <0>         0.1362
     42 H10         3.6265    0.2531    2.3797 H         1 <0>         0.1448
     43 H11         2.1913   -0.0059    0.3160 H         1 <0>         0.1375
     44 H12         3.0497    1.5538    0.3858 H         1 <0>         0.0985
     45 H13         1.1799    1.0976    5.1889 H         1 <0>         0.0834
     46 H14         2.2518   -0.2093    4.6310 H         1 <0>         0.0846
     47 H15         2.1073   -0.1724    7.1061 H         1 <0>         0.0920
     48 H16         3.0379    1.7633    8.3453 H         1 <0>         0.0806
     49 H17         1.6390    2.2496    7.3579 H         1 <0>         0.0701
     50 H18         3.4987    3.8734    7.1271 H         1 <0>         0.0928
     51 H19         3.6433    3.8365    4.6520 H         1 <0>         0.0865
     52 H20         1.9925    3.4603    5.2012 H         1 <0>         0.0866
     53 H21         5.6069    3.1540    6.0379 H         1 <0>         0.0713
     54 H22         5.3551    2.2915    7.5744 H         1 <0>         0.0805
     55 H23         6.0752    0.7320    5.7860 H         1 <0>         0.0929
     56 H24         4.5425   -0.0711    7.5621 H         1 <0>         0.0806
     57 H25         4.2155   -0.8918    6.0169 H         1 <0>         0.0706
     58 H26         4.5690    0.3189    3.8601 H         1 <0>         0.0867
     59 H27         5.1479    2.0021    3.8688 H         1 <0>         0.0866
     60 H28        -7.3762    3.8602    2.7814 H         1 <0>         0.0822
     61 H29        -6.5532    2.4925    1.9882 H         1 <0>         0.0924
     62 H30        -4.6544    2.6833    3.5352 H         1 <0>         0.0625
     63 H31        -6.1590    2.5675    4.4802 H         1 <0>         0.0787
     64 H32        -4.7108    4.3596    5.3749 H         1 <0>         0.0649
     65 H33        -6.2030    5.0469    4.6904 H         1 <0>         0.0697
     66 H34        -3.5181    4.8652    3.2491 H         1 <0>         0.0612
     67 H35        -4.1955    6.3379    3.9858 H         1 <0>         0.0781
     68 H36        -4.6193    6.1864    1.5059 H         1 <0>         0.0914
     69 H37        -6.1181    6.2633    2.4677 H         1 <0>         0.0816
     70 N3          2.6035    1.9665    3.0459 N.4       1 <0>        -0.3895
     71 H38         3.2259    2.6302    2.5700 H         1 <0>         0.4246
@<TRIPOS>BOND
     1    1    6 ar
     2    1    2 ar
     3    1   33 1
     4    2    3 ar
     5    2   34 1
     6    3    4 ar
     7    3   24 1
     8    4    5 ar
     9    4   35 1
    10    5    6 ar
    11    5   36 1
    12    6    7 1
    13    7    8 2
    14    7    9 am
    15    9   13 1
    16    9   10 1
    17   10   11 1
    18   10   37 1
    19   10   38 1
    20   11   39 1
    21   11   40 1
    22   11   70 1
    23   12   13 1
    24   12   41 1
    25   12   42 1
    26   12   70 1
    27   13   43 1
    28   13   44 1
    29   14   19 1
    30   14   23 1
    31   14   15 1
    32   14   70 1
    33   15   16 1
    34   15   45 1
    35   15   46 1
    36   16   22 1
    37   16   17 1
    38   16   47 1
    39   17   18 1
    40   17   48 1
    41   17   49 1
    42   18   19 1
    43   18   20 1
    44   18   50 1
    45   19   51 1
    46   19   52 1
    47   20   21 1
    48   20   53 1
    49   20   54 1
    50   21   22 1
    51   21   23 1
    52   21   55 1
    53   22   56 1
    54   22   57 1
    55   23   58 1
    56   23   59 1
    57   24   25 2
    58   24   26 2
    59   24   27 1
    60   27   32 1
    61   27   28 1
    62   28   29 1
    63   28   60 1
    64   28   61 1
    65   29   30 1
    66   29   62 1
    67   29   63 1
    68   30   31 1
    69   30   64 1
    70   30   65 1
    71   31   32 1
    72   31   66 1
    73   31   67 1
    74   32   68 1
    75   32   69 1
    76   70   71 1
@<TRIPOS>MOLECULE
ZINC23325303
   57    60     0     0     0
SMALL
USER_CHARGES
3-[[4-[2-(4-chlorophenoxy)ethyl]piperazin-1-yl]methyl]-5-(4-methoxyphenyl)-1,3,4-oxadiazole-2-thione
@<TRIPOS>ATOM
      1 C1          5.2384    2.1305    0.1427 C.3       1 <0>         0.0145
      2 O1          5.0835    0.7099    0.1456 O.3       1 <0>        -0.3025
      3 C2          3.8135    0.2279    0.1220 C.ar      1 <0>         0.1875
      4 C3          2.7392    1.1077    0.0966 C.ar      1 <0>        -0.2130
      5 C4          1.4493    0.6225    0.0717 C.ar      1 <0>        -0.0139
      6 C5          1.2235   -0.7550    0.0725 C.ar      1 <0>        -0.1201
      7 C6          2.3060   -1.6361    0.0986 C.ar      1 <0>        -0.0099
      8 C7          3.5930   -1.1432    0.1234 C.ar      1 <0>        -0.1566
      9 C8         -0.1585   -1.2795    0.0464 C.2       1 <0>         0.3535
     10 N1         -0.4886   -2.5390    0.0446 N.2       1 <0>        -0.2942
     11 N2         -1.8889   -2.6144    0.0171 N.pl3     1 <0>        -0.4350
     12 C9         -2.3492   -1.3454    0.0032 C.2       1 <0>         0.4070
     13 S1         -3.9917   -0.8640   -0.0307 S.2       1 <0>        -0.3851
     14 O2         -1.2814   -0.5289    0.0263 O.3       1 <0>        -0.1965
     15 C10        -2.6972   -3.8362    0.0065 C.3       1 <0>         0.2692
     16 N3         -2.9944   -4.2387    1.3876 N.4       1 <0>        -0.4246
     17 C11        -1.7699   -4.6396    2.0944 C.3       1 <0>        -0.0021
     18 C12        -2.1099   -4.9745    3.5486 C.3       1 <0>         0.0300
     19 N4         -3.1091   -6.0516    3.5798 N.3       1 <0>        -0.5318
     20 C13        -4.3336   -5.6508    2.8730 C.3       1 <0>         0.0215
     21 C14        -3.9936   -5.3159    1.4188 C.3       1 <0>         0.0046
     22 C15        -3.4063   -6.4542    4.9610 C.3       1 <0>         0.0545
     23 C16        -4.0416   -7.8460    4.9610 C.3       1 <0>         0.0590
     24 O3         -3.0959   -8.8014    4.4764 O.3       1 <0>        -0.2988
     25 C17        -3.5043  -10.0962    4.4123 C.ar      1 <0>         0.1302
     26 C18        -4.7869  -10.4405    4.8133 C.ar      1 <0>        -0.1991
     27 C19        -5.2017  -11.7563    4.7430 C.ar      1 <0>        -0.0684
     28 C20        -4.3353  -12.7322    4.2829 C.ar      1 <0>        -0.0704
     29 C21        -3.0539  -12.3915    3.8875 C.ar      1 <0>        -0.0687
     30 C22        -2.6371  -11.0760    3.9514 C.ar      1 <0>        -0.1378
     31 Cl1        -4.8569  -14.3859    4.2012 Cl        1 <0>        -0.0615
     32 H1          6.3089    2.3826    0.1632 H         1 <0>         0.1141
     33 H2          4.7446    2.5550    1.0293 H         1 <0>         0.0658
     34 H3          4.7809    2.5473   -0.7667 H         1 <0>         0.0662
     35 H4          2.9147    2.1733    0.0959 H         1 <0>         0.1489
     36 H5          0.6145    1.3072    0.0470 H         1 <0>         0.1436
     37 H6          2.1353   -2.7025    0.0990 H         1 <0>         0.1468
     38 H7          4.4310   -1.8242    0.1436 H         1 <0>         0.1519
     39 H8         -3.6382   -3.6486   -0.5313 H         1 <0>         0.1820
     40 H9         -2.1405   -4.6398   -0.4979 H         1 <0>         0.1751
     41 H10        -1.3370   -5.5245    1.6049 H         1 <0>         0.1447
     42 H11        -1.0438   -3.8137    2.0674 H         1 <0>         0.1291
     43 H12        -1.1995   -5.3023    4.0718 H         1 <0>         0.1283
     44 H13        -2.5167   -4.0812    4.0452 H         1 <0>         0.0605
     45 H14        -5.0596   -6.4768    2.9000 H         1 <0>         0.1283
     46 H15        -4.7666   -4.7660    3.3625 H         1 <0>         0.0660
     47 H16        -4.9033   -4.9874    0.8948 H         1 <0>         0.1464
     48 H17        -3.5862   -6.2085    0.9216 H         1 <0>         0.1446
     49 H18        -2.4744   -6.4765    5.5450 H         1 <0>         0.1016
     50 H19        -4.1039   -5.7327    5.4112 H         1 <0>         0.0748
     51 H20        -4.3401   -8.1128    5.9856 H         1 <0>         0.0778
     52 H21        -4.9279   -7.8445    4.3095 H         1 <0>         0.0656
     53 H22        -5.4620   -9.6798    5.1763 H         1 <0>         0.1342
     54 H23        -6.2016  -12.0242    5.0512 H         1 <0>         0.1378
     55 H24        -2.3792  -13.1545    3.5283 H         1 <0>         0.1425
     56 H25        -1.6369  -10.8104    3.6423 H         1 <0>         0.1396
     57 H26        -3.4177   -3.3673    1.9086 H         1 <0>         0.4424
@<TRIPOS>BOND
     1    1    2 1
     2    1   32 1
     3    1   33 1
     4    1   34 1
     5    2    3 1
     6    3    8 ar
     7    3    4 ar
     8    4    5 ar
     9    4   35 1
    10    5    6 ar
    11    5   36 1
    12    6    7 ar
    13    6    9 1
    14    7    8 ar
    15    7   37 1
    16    8   38 1
    17    9   14 1
    18    9   10 2
    19   10   11 1
    20   11   12 1
    21   11   15 1
    22   12   13 2
    23   12   14 1
    24   15   16 1
    25   15   39 1
    26   15   40 1
    27   16   21 1
    28   16   17 1
    29   16   57 1
    30   17   18 1
    31   17   41 1
    32   17   42 1
    33   18   19 1
    34   18   43 1
    35   18   44 1
    36   19   20 1
    37   19   22 1
    38   20   21 1
    39   20   45 1
    40   20   46 1
    41   21   47 1
    42   21   48 1
    43   22   23 1
    44   22   49 1
    45   22   50 1
    46   23   24 1
    47   23   51 1
    48   23   52 1
    49   24   25 1
    50   25   30 ar
    51   25   26 ar
    52   26   27 ar
    53   26   53 1
    54   27   28 ar
    55   27   54 1
    56   28   29 ar
    57   28   31 1
    58   29   30 ar
    59   29   55 1
    60   30   56 1
@<TRIPOS>MOLECULE
ZINC39228651
   65    69     0     0     0
SMALL
USER_CHARGES

@<TRIPOS>ATOM
      1 C1         -0.0187    1.5258    0.0104 C.3       1 <0>        -0.1536
      2 C2          0.0021   -0.0041    0.0020 C.3       1 <0>         0.0589
      3 O1         -1.3386   -0.4987    0.0122 O.3       1 <0>        -0.3412
      4 C3         -1.4971   -1.8383    0.0065 C.2       1 <0>         0.5439
      5 O2         -0.5227   -2.5660   -0.0067 O.2       1 <0>        -0.4628
      6 C4         -2.8429   -2.4165    0.0162 C.2       1 <0>        -0.0110
      7 C5         -3.1443   -3.7492    0.0175 C.2       1 <0>        -0.1090
      8 C6         -4.5440   -3.8461    0.0288 C.2       1 <0>        -0.1512
      9 C7         -5.0302   -2.5849    0.0340 C.2       1 <0>        -0.0598
     10 O3         -4.0024   -1.7265    0.0315 O.3       1 <0>        -0.1405
     11 C8         -6.4890   -2.2069    0.0456 C.3       1 <0>         0.0762
     12 N1         -6.9524   -2.0857    1.4343 N.4       1 <0>        -0.3851
     13 C9         -6.2762   -0.9522    2.0842 C.3       1 <0>        -0.0086
     14 C10        -6.6422   -0.9530    3.5664 C.3       1 <0>        -0.1418
     15 C11        -8.1494   -0.7625    3.7503 C.3       1 <0>        -0.1023
     16 H1         -8.4610    0.2758    3.6366 H         1 <0>         0.1266
     17 C12        -8.5145   -1.3641    5.1314 C.3       1 <0>        -0.0843
     18 H2         -9.4582   -0.9537    5.4908 H         1 <0>         0.1239
     19 C13        -7.4302   -1.1484    6.1406 C.2       1 <0>        -0.1291
     20 C14        -7.0230   -2.1372    6.9315 C.2       1 <0>        -0.1319
     21 C15        -7.5873   -3.4829    6.8651 C.2       1 <0>        -0.0552
     22 C16        -8.3761   -3.8452    5.8212 C.2       1 <0>        -0.1298
     23 C17        -8.6551   -2.8449    4.8328 C.2       1 <0>         0.2059
     24 N2         -8.9062   -3.0258    3.5738 N.2       1 <0>        -0.4891
     25 C18        -8.9333   -1.7328    2.8421 C.3       1 <0>         0.0285
     26 H3         -9.9671   -1.3915    2.7887 H         1 <0>         0.1321
     27 C19        -8.3971   -1.8358    1.4518 C.3       1 <0>         0.1208
     28 H4         -8.6016   -0.8979    0.9354 H         1 <0>         0.1551
     29 C20        -9.0981   -2.9560    0.7274 C.ar      1 <0>        -0.1166
     30 C21        -8.5049   -4.2007    0.6411 C.ar      1 <0>        -0.1170
     31 C22        -9.1502   -5.2316   -0.0251 C.ar      1 <0>         0.1159
     32 C23       -10.3914   -5.0131   -0.6048 C.ar      1 <0>        -0.1448
     33 C24       -10.9844   -3.7688   -0.5185 C.ar      1 <0>        -0.1496
     34 C25       -10.3413   -2.7390    0.1524 C.ar      1 <0>         0.1224
     35 O4        -10.9277   -1.5154    0.2422 O.3       1 <0>        -0.3199
     36 C26       -12.2084   -1.3630   -0.3731 C.3       1 <0>         0.0241
     37 O5         -8.5661   -6.4567   -0.1104 O.3       1 <0>        -0.3129
     38 C27        -9.2874   -7.4719   -0.8113 C.3       1 <0>         0.0231
     39 H5          1.0039    1.9031    0.0027 H         1 <0>         0.0881
     40 H6         -0.5459    1.8868   -0.8726 H         1 <0>         0.0691
     41 H7         -0.5289    1.8773    0.9072 H         1 <0>         0.0679
     42 H8          0.5123   -0.3556   -0.8948 H         1 <0>         0.0768
     43 H9          0.5293   -0.3651    0.8851 H         1 <0>         0.0762
     44 H10        -2.4414   -4.5692    0.0109 H         1 <0>         0.1801
     45 H11        -5.1239   -4.7572    0.0324 H         1 <0>         0.1757
     46 H12        -6.6215   -1.2537   -0.4661 H         1 <0>         0.1526
     47 H13        -7.0679   -2.9768   -0.4647 H         1 <0>         0.1670
     48 H14        -5.1970   -1.0575    1.9735 H         1 <0>         0.1338
     49 H15        -6.6045   -0.0190    1.6266 H         1 <0>         0.1389
     50 H16        -6.3435   -1.9030    4.0096 H         1 <0>         0.0900
     51 H17        -6.1138   -0.1418    4.0673 H         1 <0>         0.1215
     52 H18        -6.9711   -0.1747    6.2276 H         1 <0>         0.1308
     53 H19        -6.2434   -1.9372    7.6517 H         1 <0>         0.1302
     54 H20        -7.3757   -4.1934    7.6504 H         1 <0>         0.1409
     55 H21        -8.7899   -4.8395    5.7410 H         1 <0>         0.1471
     56 H22        -7.5384   -4.3707    1.0921 H         1 <0>         0.1267
     57 H23       -10.8938   -5.8159   -1.1239 H         1 <0>         0.1429
     58 H24       -11.9504   -3.5985   -0.9704 H         1 <0>         0.1441
     59 H25       -12.1260   -1.5707   -1.4399 H         1 <0>         0.0625
     60 H26       -12.9140   -2.0599    0.0793 H         1 <0>         0.0619
     61 H27       -12.5621   -0.3423   -0.2279 H         1 <0>         0.1092
     62 H28        -8.7111   -8.3970   -0.8050 H         1 <0>         0.1090
     63 H29       -10.2474   -7.6385   -0.3227 H         1 <0>         0.0608
     64 H30        -9.4538   -7.1544   -1.8406 H         1 <0>         0.0605
     65 H31        -6.7496   -2.9378    1.9351 H         1 <0>         0.4253
@<TRIPOS>BOND
     1    1    2 1
     2    1   39 1
     3    1   40 1
     4    1   41 1
     5    2    3 1
     6    2   42 1
     7    2   43 1
     8    3    4 1
     9    4    5 2
    10    4    6 1
    11    6   10 1
    12    6    7 2
    13    7    8 1
    14    7   44 1
    15    8    9 2
    16    8   45 1
    17    9   10 1
    18    9   11 1
    19   11   12 1
    20   11   46 1
    21   11   47 1
    22   12   27 1
    23   12   13 1
    24   12   65 1
    25   13   14 1
    26   13   48 1
    27   13   49 1
    28   14   15 1
    29   14   50 1
    30   14   51 1
    31   15   16 1
    32   15   25 1
    33   15   17 1
    34   17   18 1
    35   17   23 1
    36   17   19 1
    37   19   20 2
    38   19   52 1
    39   20   21 1
    40   20   53 1
    41   21   22 2
    42   21   54 1
    43   22   23 1
    44   22   55 1
    45   23   24 2
    46   24   25 1
    47   25   26 1
    48   25   27 1
    49   27   28 1
    50   27   29 1
    51   29   34 ar
    52   29   30 ar
    53   30   31 ar
    54   30   56 1
    55   31   32 ar
    56   31   37 1
    57   32   33 ar
    58   32   57 1
    59   33   34 ar
    60   33   58 1
    61   34   35 1
    62   35   36 1
    63   36   59 1
    64   36   60 1
    65   36   61 1
    66   37   38 1
    67   38   62 1
    68   38   63 1
    69   38   64 1
@<TRIPOS>MOLECULE
ZINC63141577
   59    64     0     0     0
SMALL
USER_CHARGES

@<TRIPOS>ATOM
      1 C1         -0.4408    1.4455   -0.8431 C.3       1 <0>         0.0334
      2 O1         -0.4503    0.0181   -0.9094 O.3       1 <0>        -0.3497
      3 C2         -1.1898   -0.6319    0.0100 C.2       1 <0>         0.5025
      4 O2         -1.8095   -0.0042    0.8452 O.2       1 <0>        -0.4991
      5 C3         -1.2470   -2.1081    0.0026 C.ar      1 <0>        -0.1210
      6 C4         -0.5314   -2.8328   -0.9524 C.ar      1 <0>        -0.0362
      7 C5         -0.5894   -4.2111   -0.9536 C.ar      1 <0>        -0.1282
      8 C6         -1.3544   -4.8753   -0.0113 C.ar      1 <0>        -0.0127
      9 C7         -2.0665   -4.1633    0.9377 C.ar      1 <0>        -0.1355
     10 C8         -2.0125   -2.7850    0.9542 C.ar      1 <0>        -0.0315
     11 C9         -1.4129   -6.3812   -0.0189 C.3       1 <0>         0.1926
     12 H1         -0.5006   -6.7840   -0.4587 H         1 <0>         0.1199
     13 C10        -1.5730   -6.9017    1.4124 C.3       1 <0>         0.0711
     14 H2         -2.3756   -6.3709    1.9243 H         1 <0>         0.1803
     15 C11        -1.8958   -8.3865    1.3056 C.2       1 <0>         0.0562
     16 C12        -0.9821   -9.0222    2.0295 C.ar      1 <0>        -0.1480
     17 C13        -0.8144  -10.4454    2.3645 C.ar      1 <0>         0.0005
     18 C14         0.2616  -10.7570    3.1346 C.ar      1 <0>        -0.1555
     19 C15         1.1766   -9.8068    3.5985 C.ar      1 <0>         0.0599
     20 C16         1.0969   -8.4764    3.3435 C.ar      1 <0>        -0.2053
     21 C17         0.0041   -8.0254    2.5474 C.ar      1 <0>         0.3360
     22 N1         -0.3258   -6.8036    2.1729 N.pl3     1 <0>        -0.5776
     23 C18        -3.0167   -8.9095    0.4411 C.3       1 <0>        -0.0861
     24 C19        -2.8406   -8.2633   -0.9454 C.3       1 <0>         0.1359
     25 H3         -1.9685   -8.7096   -1.4235 H         1 <0>         0.1289
     26 N2         -2.5875   -6.8338   -0.7973 N.am      1 <0>        -0.6056
     27 C20        -3.3793   -5.8998   -1.3369 C.2       1 <0>         0.5145
     28 O3         -3.0951   -4.7375   -1.1391 O.2       1 <0>        -0.4670
     29 C21        -4.5873   -6.1868   -2.1655 C.3       1 <0>         0.0958
     30 N3         -4.8123   -7.6128   -2.3336 N.am      1 <0>        -0.5921
     31 C22        -4.0383   -8.5502   -1.7893 C.2       1 <0>         0.5216
     32 O4         -4.3219   -9.7110   -1.9965 O.2       1 <0>        -0.5054
     33 C23        -5.9552   -8.0427   -3.1431 C.3       1 <0>         0.1962
     34 C24        -5.5278   -8.1825   -4.5814 C.2       1 <0>        -0.1909
     35 C25        -5.0354   -9.2698   -5.2237 C.2       1 <0>        -0.1185
     36 C26        -4.7073   -9.1660   -6.5625 C.2       1 <0>        -0.1663
     37 C27        -4.8876   -7.9800   -7.1934 C.2       1 <0>        -0.1524
     38 S1         -5.5461   -6.9612   -5.8835 S.3       1 <0>         0.0392
     39 H4          0.1913    1.8419   -1.6378 H         1 <0>         0.1076
     40 H5         -1.4565    1.8217   -0.9650 H         1 <0>         0.0645
     41 H6         -0.0497    1.7617    0.1239 H         1 <0>         0.0639
     42 H7          0.0658   -2.3156   -1.6887 H         1 <0>         0.1424
     43 H8         -0.0366   -4.7729   -1.6920 H         1 <0>         0.1288
     44 H9         -2.6622   -4.6879    1.6699 H         1 <0>         0.1199
     45 H10        -2.5649   -2.2305    1.6985 H         1 <0>         0.1397
     46 H11        -1.5065  -11.1988    2.0187 H         1 <0>         0.1734
     47 H12         0.4176  -11.7917    3.4021 H         1 <0>         0.1578
     48 H13         2.0025  -10.1553    4.2009 H         1 <0>         0.1602
     49 H14         1.8326   -7.7862    3.7290 H         1 <0>         0.1710
     50 H15        -2.9494   -9.9943    0.3586 H         1 <0>         0.1403
     51 H16        -3.9794   -8.6253    0.8658 H         1 <0>         0.1317
     52 H17        -5.4597   -5.7455   -1.6836 H         1 <0>         0.1259
     53 H18        -4.4592   -5.7309   -3.1473 H         1 <0>         0.1226
     54 H19        -6.3190   -9.0028   -2.7771 H         1 <0>         0.1210
     55 H20        -6.7509   -7.3012   -3.0709 H         1 <0>         0.1048
     56 H21        -4.9011  -10.2032   -4.6973 H         1 <0>         0.1376
     57 H22        -4.3128  -10.0171   -7.0977 H         1 <0>         0.1377
     58 H23        -4.6885   -7.7199   -8.2225 H         1 <0>         0.1893
     59 H24         0.1630   -5.9864    2.3575 H         1 <0>         0.4602
@<TRIPOS>BOND
     1    1    2 1
     2    1   39 1
     3    1   40 1
     4    1   41 1
     5    2    3 1
     6    3    4 2
     7    3    5 1
     8    5   10 ar
     9    5    6 ar
    10    6    7 ar
    11    6   42 1
    12    7    8 ar
    13    7   43 1
    14    8    9 ar
    15    8   11 1
    16    9   10 ar
    17    9   44 1
    18   10   45 1
    19   11   12 1
    20   11   26 1
    21   11   13 1
    22   13   14 1
    23   13   22 1
    24   13   15 1
    25   15   16 2
    26   15   23 1
    27   16   21 ar
    28   16   17 ar
    29   17   18 ar
    30   17   46 1
    31   18   19 ar
    32   18   47 1
    33   19   20 ar
    34   19   48 1
    35   20   21 ar
    36   20   49 1
    37   21   22 2
    38   22   59 1
    39   23   24 1
    40   23   50 1
    41   23   51 1
    42   24   25 1
    43   24   31 1
    44   24   26 1
    45   26   27 am
    46   27   28 2
    47   27   29 1
    48   29   30 1
    49   29   52 1
    50   29   53 1
    51   30   31 am
    52   30   33 1
    53   31   32 2
    54   33   34 1
    55   33   54 1
    56   33   55 1
    57   34   38 1
    58   34   35 2
    59   35   36 1
    60   35   56 1
    61   36   37 2
    62   36   57 1
    63   37   38 1
    64   37   58 1
@<TRIPOS>MOLECULE
ZINC06131502
   64    67     0     0     0
SMALL
USER_CHARGES
1-cyclohexyl-4-[4-(1-piperidylsulfonyl)phenyl]sulfonyl-piperazine
@<TRIPOS>ATOM
      1 C1          3.5132   -2.3490   -0.7616 C.ar      1 <0>        -0.0367
      2 C2          3.9515   -2.6509   -2.0374 C.ar      1 <0>        -0.0427
      3 C3          4.8488   -1.8153   -2.6758 C.ar      1 <0>        -0.6397
      4 C4          5.3049   -0.6759   -2.0398 C.ar      1 <0>        -0.0427
      5 C5          4.8633   -0.3717   -0.7657 C.ar      1 <0>        -0.0367
      6 C6          3.9653   -1.2068   -0.1277 C.ar      1 <0>        -0.6220
      7 S1          3.4024   -0.8191    1.4963 S.o2      1 <0>         2.6813
      8 O1          4.3959    0.0101    2.0833 O.2       1 <0>        -0.9429
      9 O2          2.9869   -2.0437    2.0853 O.2       1 <0>        -0.9429
     10 N1          2.0433    0.1131    1.3339 N.pl3     1 <0>        -0.9907
     11 C7          0.7138   -0.5080    1.2615 C.3       1 <0>         0.1158
     12 C8          0.0021   -0.0041    0.0020 C.3       1 <0>        -0.1372
     13 C9         -0.0187    1.5262    0.0104 C.3       1 <0>        -0.1210
     14 C10         1.4165    2.0576   -0.0004 C.3       1 <0>        -0.1372
     15 C11         2.1442    1.5770    1.2590 C.3       1 <0>         0.1161
     16 S2          5.4108   -2.2024   -4.3003 S.o2      1 <0>         2.6854
     17 O3          4.4175   -3.0322   -4.8867 O.2       1 <0>        -0.9274
     18 O4          5.8250   -0.9774   -4.8894 O.2       1 <0>        -0.9275
     19 N2          6.7706   -3.1337   -4.1390 N.pl3     1 <0>        -1.0107
     20 C12         8.1043   -2.5172   -4.0730 C.3       1 <0>         0.0962
     21 C13         8.8325   -3.0746   -2.8395 C.3       1 <0>        -0.0281
     22 C14         7.4619   -5.0754   -2.8370 C.3       1 <0>        -0.0211
     23 C15         6.6771   -4.5996   -4.0642 C.3       1 <0>         0.0950
     24 C16         9.6644   -5.1130   -1.8320 C.3       1 <0>         0.0290
     25 C17         9.1333   -4.6606   -0.4703 C.3       1 <0>        -0.1392
     26 C18        10.0029   -5.2548    0.6394 C.3       1 <0>        -0.1179
     27 C19        11.4455   -4.7744    0.4694 C.3       1 <0>        -0.1314
     28 C20        11.9766   -5.2268   -0.8922 C.3       1 <0>        -0.1172
     29 C21        11.1070   -4.6326   -2.0020 C.3       1 <0>        -0.1417
     30 H1          2.8150   -3.0038   -0.2615 H         1 <0>         0.1541
     31 H2          3.5949   -3.5410   -2.5344 H         1 <0>         0.1517
     32 H3          6.0060   -0.0230   -2.5385 H         1 <0>         0.1516
     33 H4          5.2197    0.5185   -0.2688 H         1 <0>         0.1540
     34 H5          0.1341   -0.2343    2.1430 H         1 <0>         0.0838
     35 H6          0.8167   -1.5921    1.2140 H         1 <0>         0.0912
     36 H7         -1.0203   -0.3817   -0.0139 H         1 <0>         0.0813
     37 H8          0.5341   -0.3558   -0.8819 H         1 <0>         0.0641
     38 H9         -0.5462    1.8870   -0.8725 H         1 <0>         0.0689
     39 H10        -0.5292    1.8775    0.9071 H         1 <0>         0.0697
     40 H11         1.9352    1.6864   -0.8843 H         1 <0>         0.0641
     41 H12         1.4008    3.1473   -0.0180 H         1 <0>         0.0813
     42 H13         1.6812    2.0207    2.1404 H         1 <0>         0.0840
     43 H14         3.1932    1.8688    1.2087 H         1 <0>         0.0910
     44 H15         8.6657   -2.7615   -4.9748 H         1 <0>         0.1082
     45 H16         8.0037   -1.4356   -3.9827 H         1 <0>         0.1357
     46 H17         8.3236   -2.7453   -1.9336 H         1 <0>         0.1367
     47 H18         9.8607   -2.7130   -2.8315 H         1 <0>         0.1466
     48 H19         6.9721   -4.7182   -1.9311 H         1 <0>         0.1356
     49 H20         7.4962   -6.1648   -2.8271 H         1 <0>         0.1456
     50 H21         5.6325   -4.8955   -3.9680 H         1 <0>         0.1360
     51 H22         7.1040   -5.0402   -4.9652 H         1 <0>         0.1080
     52 H23         9.6346   -6.2011   -1.8903 H         1 <0>         0.1386
     53 H24         9.1631   -3.5725   -0.4120 H         1 <0>         0.0857
     54 H25         8.1056   -5.0029   -0.3492 H         1 <0>         0.0848
     55 H26         9.9731   -6.3429    0.5811 H         1 <0>         0.0750
     56 H27         9.6245   -4.9325    1.6095 H         1 <0>         0.0850
     57 H28        12.0650   -5.1977    1.2600 H         1 <0>         0.0801
     58 H29        11.4754   -3.6863    0.5278 H         1 <0>         0.0698
     59 H30        11.9468   -6.3149   -0.9506 H         1 <0>         0.0749
     60 H31        13.0044   -4.8845   -1.0134 H         1 <0>         0.0853
     61 H32        11.4854   -4.9549   -2.9720 H         1 <0>         0.0877
     62 H33        11.1369   -3.5445   -1.9436 H         1 <0>         0.0870
     63 N3          8.8423   -4.5513   -2.9237 N.4       1 <0>        -0.3903
     64 H34         9.2484   -4.8306   -3.8244 H         1 <0>         0.4291
@<TRIPOS>BOND
     1    1    6 ar
     2    1    2 ar
     3    1   30 1
     4    2    3 ar
     5    2   31 1
     6    3    4 ar
     7    3   16 1
     8    4    5 ar
     9    4   32 1
    10    5    6 ar
    11    5   33 1
    12    6    7 1
    13    7    8 2
    14    7    9 2
    15    7   10 1
    16   10   15 1
    17   10   11 1
    18   11   12 1
    19   11   34 1
    20   11   35 1
    21   12   13 1
    22   12   36 1
    23   12   37 1
    24   13   14 1
    25   13   38 1
    26   13   39 1
    27   14   15 1
    28   14   40 1
    29   14   41 1
    30   15   42 1
    31   15   43 1
    32   16   17 2
    33   16   18 2
    34   16   19 1
    35   19   23 1
    36   19   20 1
    37   20   21 1
    38   20   44 1
    39   20   45 1
    40   21   46 1
    41   21   47 1
    42   21   63 1
    43   22   23 1
    44   22   48 1
    45   22   49 1
    46   22   63 1
    47   23   50 1
    48   23   51 1
    49   24   29 1
    50   24   25 1
    51   24   52 1
    52   24   63 1
    53   25   26 1
    54   25   53 1
    55   25   54 1
    56   26   27 1
    57   26   55 1
    58   26   56 1
    59   27   28 1
    60   27   57 1
    61   27   58 1
    62   28   29 1
    63   28   59 1
    64   28   60 1
    65   29   61 1
    66   29   62 1
    67   63   64 1
@<TRIPOS>MOLECULE
ZINC14992744
   64    69     0     0     0
SMALL
USER_CHARGES
N-(2-furylmethyl)-2-methyl-N-[(2-morpholino-7,8-dihydro-6H-cyclopenta[g]quinolin-3-yl)methyl]thiazole-4-carboxamide
@<TRIPOS>ATOM
      1 C1         -2.8321   -6.3195   -3.0346 C.3       1 <0>        -0.0650
      2 C2         -1.3446   -6.3809   -3.2682 C.2       1 <0>         0.0570
      3 N1         -0.3786   -6.3651   -2.3867 N.2       1 <0>        -0.4842
      4 C3          0.8916   -6.4239   -2.7894 C.2       1 <0>        -0.0207
      5 C4          1.1260   -6.5113   -4.1381 C.2       1 <0>        -0.1601
      6 S1         -0.4891   -6.4972   -4.7719 S.3       1 <0>         0.1705
      7 C5          2.0012   -6.4020   -1.8214 C.2       1 <0>         0.5944
      8 O1          3.1507   -6.3459   -2.2151 O.2       1 <0>        -0.5041
      9 N2          1.7430   -6.4440   -0.4993 N.am      1 <0>        -0.6062
     10 C6          2.8475   -6.5063    0.4612 C.3       1 <0>         0.1967
     11 C7          3.2697   -7.9407    0.6487 C.2       1 <0>        -0.0591
     12 C8          4.2062   -8.5855   -0.0701 C.2       1 <0>        -0.1681
     13 C9          4.2796   -9.9021    0.4399 C.2       1 <0>        -0.2166
     14 C10         3.3836   -9.9831    1.4399 C.2       1 <0>        -0.0258
     15 O2          2.7790   -8.7905    1.5657 O.3       1 <0>        -0.1767
     16 C11         0.3578   -6.4272   -0.0226 C.3       1 <0>         0.1541
     17 C12        -0.1357   -5.0046    0.0372 C.ar      1 <0>        -0.0970
     18 C13         0.6897   -3.9804   -0.3173 C.ar      1 <0>         0.0508
     19 C14         0.1896   -2.6642   -0.2470 C.ar      1 <0>        -0.0755
     20 C15         0.9826   -1.5626   -0.5977 C.ar      1 <0>        -0.0570
     21 C16         0.4706   -0.2997   -0.5166 C.ar      1 <0>        -0.0717
     22 C17        -0.8392   -0.0903   -0.0867 C.ar      1 <0>        -0.0046
     23 C18        -1.6361   -1.1428    0.2599 C.ar      1 <0>        -0.1468
     24 C19        -1.1418   -2.4547    0.1881 C.ar      1 <0>         0.1514
     25 C20        -1.4452   -4.7326    0.4582 C.ar      1 <0>         0.4256
     26 N3         -2.2742   -5.7854    0.8154 N.pl3     1 <0>        -0.4928
     27 C21        -3.6597   -5.5313    0.3945 C.3       1 <0>        -0.0059
     28 C22        -4.5266   -6.7409    0.7541 C.3       1 <0>         0.0656
     29 O3         -4.4250   -6.9933    2.1581 O.3       1 <0>        -0.3706
     30 C23        -3.0893   -7.2455    2.6025 C.3       1 <0>         0.0620
     31 C24        -2.2078   -6.0410    2.2616 C.3       1 <0>         0.0142
     32 C25        -1.1421    1.3943   -0.0914 C.3       1 <0>        -0.0985
     33 C26         0.2347    2.0888   -0.1404 C.3       1 <0>        -0.1232
     34 C27         1.1190    1.0321   -0.8345 C.3       1 <0>        -0.0942
     35 H1         -3.3521   -6.3592   -3.9918 H         1 <0>         0.0943
     36 H2         -3.1385   -7.1655   -2.4194 H         1 <0>         0.0981
     37 H3         -3.0817   -5.3896   -2.5238 H         1 <0>         0.0797
     38 H4          2.0665   -6.5725   -4.6655 H         1 <0>         0.2112
     39 H5          3.6897   -5.9259    0.0845 H         1 <0>         0.1202
     40 H6          2.5216   -6.0956    1.4168 H         1 <0>         0.0994
     41 H7          4.7896   -8.1762   -0.8816 H         1 <0>         0.1518
     42 H8          4.9300  -10.6914    0.0930 H         1 <0>         0.1515
     43 H9          3.1874  -10.8574    2.0428 H         1 <0>         0.2063
     44 H10         0.3106   -6.8703    0.9722 H         1 <0>         0.1008
     45 H11        -0.2685   -7.0007   -0.7059 H         1 <0>         0.1585
     46 H12         1.7013   -4.1718   -0.6436 H         1 <0>         0.1701
     47 H13         1.9983   -1.7131   -0.9325 H         1 <0>         0.1565
     48 H14        -2.6488   -0.9659    0.5910 H         1 <0>         0.1495
     49 H15        -4.0391   -4.6467    0.9059 H         1 <0>         0.0569
     50 H16        -3.6889   -5.3701   -0.6832 H         1 <0>         0.1093
     51 H17        -4.1803   -7.6141    0.2013 H         1 <0>         0.0769
     52 H18        -5.5653   -6.5348    0.4956 H         1 <0>         0.1178
     53 H19        -2.7012   -8.1334    2.1035 H         1 <0>         0.0768
     54 H20        -3.0876   -7.4041    3.6809 H         1 <0>         0.1194
     55 H21        -1.1772   -6.2519    2.5470 H         1 <0>         0.1106
     56 H22        -2.5632   -5.1643    2.8029 H         1 <0>         0.0677
     57 H23        -1.7298    1.6574   -0.9709 H         1 <0>         0.1023
     58 H24        -1.6745    1.6743    0.8176 H         1 <0>         0.0942
     59 H25         0.1863    3.0024   -0.7330 H         1 <0>         0.0924
     60 H26         0.5987    2.2977    0.8655 H         1 <0>         0.0824
     61 H27         2.1321    1.0646   -0.4336 H         1 <0>         0.0934
     62 H28         1.1322    1.1986   -1.9116 H         1 <0>         0.0985
     63 N4         -1.9786   -3.4885    0.5463 N.ar      1 <0>        -0.5264
     64 H29        -2.9432   -3.3280    0.8595 H         1 <0>         0.4616
@<TRIPOS>BOND
     1    1    2 1
     2    1   35 1
     3    1   36 1
     4    1   37 1
     5    2    6 1
     6    2    3 2
     7    3    4 1
     8    4    5 2
     9    4    7 1
    10    5    6 1
    11    5   38 1
    12    7    8 2
    13    7    9 am
    14    9   10 1
    15    9   16 1
    16   10   11 1
    17   10   39 1
    18   10   40 1
    19   11   15 1
    20   11   12 2
    21   12   13 1
    22   12   41 1
    23   13   14 2
    24   13   42 1
    25   14   15 1
    26   14   43 1
    27   16   17 1
    28   16   44 1
    29   16   45 1
    30   17   25 ar
    31   17   18 ar
    32   18   19 ar
    33   18   46 1
    34   19   24 ar
    35   19   20 ar
    36   20   21 ar
    37   20   47 1
    38   21   34 1
    39   21   22 ar
    40   22   23 ar
    41   22   32 1
    42   23   24 ar
    43   23   48 1
    44   24   63 ar
    45   25   26 1
    46   25   63 ar
    47   26   31 1
    48   26   27 1
    49   27   28 1
    50   27   49 1
    51   27   50 1
    52   28   29 1
    53   28   51 1
    54   28   52 1
    55   29   30 1
    56   30   31 1
    57   30   53 1
    58   30   54 1
    59   31   55 1
    60   31   56 1
    61   32   33 1
    62   32   57 1
    63   32   58 1
    64   33   34 1
    65   33   59 1
    66   33   60 1
    67   34   61 1
    68   34   62 1
    69   63   64 1
@<TRIPOS>MOLECULE
ZINC30630461
   54    58     0     0     0
SMALL
USER_CHARGES
2-[[2-(3-methoxyphenyl)thiazol-4-yl]methylsulfanyl]-3-(5-methyl-2-pyridyl)quinazolin-4-one
@<TRIPOS>ATOM
      1 C1         -1.2351   -0.8617    0.1086 C.3       1 <0>        -0.1278
      2 C2          0.0200   -0.0308    0.0362 C.ar      1 <0>        -0.0850
      3 C3          0.5656    0.3100   -1.1939 C.ar      1 <0>        -0.0632
      4 C4          1.7188    1.0748   -1.2155 C.ar      1 <0>        -0.1124
      5 C5          2.2883    1.4733   -0.0120 C.ar      1 <0>         0.2482
      6 N1          1.7382    1.1281    1.1409 N.ar      1 <0>        -0.4514
      7 C6          0.6394    0.4000    1.1929 C.ar      1 <0>         0.1225
      8 N2          3.4518    2.2458   -0.0194 N.am      1 <0>        -0.4345
      9 C7          4.6610    1.6383   -0.0347 C.2       1 <0>         0.5558
     10 O1          4.7573    0.4249   -0.0414 O.2       1 <0>        -0.4220
     11 C8          5.8528    2.4967   -0.0425 C.ar      1 <0>        -0.1536
     12 C9          7.1423    1.9664   -0.0587 C.ar      1 <0>        -0.0201
     13 C10         8.2180    2.8109   -0.0658 C.ar      1 <0>        -0.1019
     14 C11         8.0392    4.1883   -0.0575 C.ar      1 <0>        -0.0422
     15 C12         6.7869    4.7348   -0.0412 C.ar      1 <0>        -0.1194
     16 C13         5.6671    3.8981   -0.0336 C.ar      1 <0>         0.1253
     17 N3          4.4088    4.3968   -0.0184 N.pl3     1 <0>        -0.5400
     18 C14         3.3605    3.6111   -0.0169 C.cat     1 <0>         0.4319
     19 S1          1.7592    4.3463   -0.0043 S.3       1 <0>         0.1589
     20 C15         2.2173    6.0974   -0.0053 C.3       1 <0>        -0.1037
     21 C16         0.9699    6.9429    0.0050 C.2       1 <0>         0.0487
     22 C17         0.4148    7.3234    1.1863 C.2       1 <0>        -0.1771
     23 S2         -0.9856    8.2705    0.6029 S.3       1 <0>         0.0907
     24 C18        -0.6796    8.0568   -1.1457 C.2       1 <0>         0.1797
     25 N4          0.4207    7.3177   -1.1263 N.2       1 <0>        -0.4962
     26 C19        -1.4441    8.5716   -2.3021 C.ar      1 <0>         0.0043
     27 C20        -1.0226    8.2887   -3.6024 C.ar      1 <0>        -0.1028
     28 C21        -1.7406    8.7669   -4.6791 C.ar      1 <0>        -0.0782
     29 C22        -2.8722    9.5350   -4.4747 C.ar      1 <0>        -0.1785
     30 C23        -3.2963    9.8254   -3.1851 C.ar      1 <0>         0.1351
     31 C24        -2.5855    9.3462   -2.0974 C.ar      1 <0>        -0.1227
     32 O2         -4.4091   10.5807   -2.9900 O.3       1 <0>        -0.3122
     33 C25        -5.0932   11.0416   -4.1569 C.3       1 <0>         0.0201
     34 H1         -1.5737   -1.1039   -0.9096 H         1 <0>         0.0803
     35 H2         -2.0201   -0.2953    0.6311 H         1 <0>         0.0889
     36 H3         -1.0276   -1.7923    0.6571 H         1 <0>         0.0895
     37 H4          0.1005   -0.0140   -2.1132 H         1 <0>         0.1597
     38 H5          2.1699    1.3584   -2.1549 H         1 <0>         0.1480
     39 H6          0.2163    0.1413    2.1523 H         1 <0>         0.1799
     40 H7          7.2905    0.8967   -0.0653 H         1 <0>         0.1605
     41 H8          9.2176    2.4023   -0.0784 H         1 <0>         0.1564
     42 H9          8.9027    4.8370   -0.0636 H         1 <0>         0.1573
     43 H10         6.6629    5.8076   -0.0341 H         1 <0>         0.1560
     44 H11         2.8183    6.3197    0.8888 H         1 <0>         0.1349
     45 H12         2.8052    6.3221   -0.9075 H         1 <0>         0.1372
     46 H13         0.7315    7.1118    2.1970 H         1 <0>         0.2100
     47 H14        -0.1369    7.6926   -3.7655 H         1 <0>         0.1370
     48 H15        -1.4156    8.5442   -5.6846 H         1 <0>         0.1385
     49 H16        -3.4279    9.9104   -5.3212 H         1 <0>         0.1392
     50 H17        -2.9139    9.5721   -1.0936 H         1 <0>         0.1369
     51 H18        -5.9688   11.6363   -3.8576 H         1 <0>         0.1089
     52 H19        -5.4228   10.1783   -4.7536 H         1 <0>         0.0611
     53 H20        -4.4145   11.6649   -4.7576 H         1 <0>         0.0613
     54 H21         4.2486    5.4850   -0.0069 H         1 <0>         0.4821
@<TRIPOS>BOND
     1    1    2 1
     2    1   34 1
     3    1   35 1
     4    1   36 1
     5    2    7 ar
     6    2    3 ar
     7    3    4 ar
     8    3   37 1
     9    4    5 ar
    10    4   38 1
    11    5    6 ar
    12    5    8 1
    13    6    7 ar
    14    7   39 1
    15    8   18 2
    16    8    9 am
    17    9   10 2
    18    9   11 1
    19   11   16 ar
    20   11   12 ar
    21   12   13 ar
    22   12   40 1
    23   13   14 ar
    24   13   41 1
    25   14   15 ar
    26   14   42 1
    27   15   16 ar
    28   15   43 1
    29   16   17 1
    30   17   18 1
    31   17   54 1
    32   18   19 1
    33   19   20 1
    34   20   21 1
    35   20   44 1
    36   20   45 1
    37   21   25 1
    38   21   22 2
    39   22   23 1
    40   22   46 1
    41   23   24 1
    42   24   25 2
    43   24   26 1
    44   26   31 ar
    45   26   27 ar
    46   27   28 ar
    47   27   47 1
    48   28   29 ar
    49   28   48 1
    50   29   30 ar
    51   29   49 1
    52   30   31 ar
    53   30   32 1
    54   31   50 1
    55   32   33 1
    56   33   51 1
    57   33   52 1
    58   33   53 1
@<TRIPOS>MOLECULE
ZINC38793221
   55    59     0     0     0
SMALL
USER_CHARGES

@<TRIPOS>ATOM
      1 C1          8.7634   -0.0483    1.3211 C.ar      1 <0>        -0.2187
      2 C2          7.9391    1.0131    1.0911 C.ar      1 <0>         0.0370
      3 C3          6.5428    0.8043    1.1653 C.ar      1 <0>        -0.2365
      4 C4          5.4533    1.6491    0.9912 C.2       1 <0>         0.1486
      5 C5          4.2310    0.7857    1.2139 C.3       1 <0>         0.0723
      6 N1          4.7337   -0.5581    1.5145 N.pl3     1 <0>        -0.5958
      7 C6          6.0484   -0.5471    1.4868 C.ar      1 <0>         0.4681
      8 N2          6.9497   -1.5300    1.6971 N.ar      1 <0>        -0.5367
      9 C7          8.2361   -1.3039    1.6210 C.ar      1 <0>         0.2961
     10 C8          5.4810    3.0217    0.6738 C.2       1 <0>        -0.1336
     11 C9          4.3287    3.6825    0.6690 C.2       1 <0>        -0.0071
     12 C10         4.2188    5.1436    0.3312 C.3       1 <0>         0.1099
     13 N3          5.5655    5.7307    0.2867 N.am      1 <0>        -0.6211
     14 C11         6.6189    4.9598   -0.3954 C.3       1 <0>         0.1108
     15 C12         6.8107    3.6454    0.3685 C.3       1 <0>        -0.1092
     16 C13         5.8262    6.9280    0.8479 C.2       1 <0>         0.5136
     17 O1          6.9463    7.3904    0.7973 O.2       1 <0>        -0.5000
     18 C14         4.7260    7.6922    1.5383 C.3       1 <0>         0.1348
     19 H1          4.0776    7.0019    2.0778 H         1 <0>         0.0972
     20 C15         3.9029    8.4814    0.4985 C.3       1 <0>        -0.1179
     21 C16         3.6011    9.8142    1.2332 C.3       1 <0>        -0.1279
     22 C17         4.9039   10.0239    2.0447 C.3       1 <0>         0.1154
     23 N4          5.3054    8.6680    2.4729 N.pl3     1 <0>        -0.9879
     24 S1          6.2491    8.3056    3.7845 S.o2      1 <0>         2.7303
     25 O2          6.7334    6.9848    3.5838 O.2       1 <0>        -0.9409
     26 O3          7.1170    9.4139    3.9791 O.2       1 <0>        -0.9194
     27 C18         5.1874    8.2446    5.1894 C.2       1 <0>        -0.7049
     28 C19         4.8038    7.1693    5.8495 C.2       1 <0>        -0.0069
     29 C20         3.8828    7.3037    7.0193 C.3       1 <0>        -0.1307
     30 C21         3.8753    8.7622    7.5483 C.3       1 <0>         0.0039
     31 H2          4.5953    8.8985    8.3552 H         1 <0>         0.1480
     32 S2          4.4171    9.6252    6.0152 S.3       1 <0>        -0.0532
     33 Cl1         2.2216    9.2741    8.0525 Cl        1 <0>        -0.1024
     34 H3          9.8339    0.0836    1.2660 H         1 <0>         0.1711
     35 H4          8.3422    1.9877    0.8588 H         1 <0>         0.1693
     36 H5          3.6509    1.1661    2.0546 H         1 <0>         0.1724
     37 H6          3.6176    0.7641    0.3131 H         1 <0>         0.1748
     38 H7          8.9174   -2.1231    1.7973 H         1 <0>         0.1969
     39 H8          3.4267    3.1440    0.9198 H         1 <0>         0.1462
     40 H9          3.7393    5.2577   -0.6410 H         1 <0>         0.1220
     41 H10         3.6256    5.6500    1.0927 H         1 <0>         0.1232
     42 H11         6.3172    4.7523   -1.4220 H         1 <0>         0.0852
     43 H12         7.5504    5.5258   -0.3918 H         1 <0>         0.1130
     44 H13         7.3400    3.8405    1.3012 H         1 <0>         0.1010
     45 H14         7.3995    2.9593   -0.2402 H         1 <0>         0.0974
     46 H15         4.4901    8.6618   -0.4019 H         1 <0>         0.0880
     47 H16         2.9787    7.9555    0.2585 H         1 <0>         0.0949
     48 H17         3.4486   10.6264    0.5224 H         1 <0>         0.0966
     49 H18         2.7412    9.7096    1.8949 H         1 <0>         0.0858
     50 H19         5.6752   10.4683    1.4157 H         1 <0>         0.0849
     51 H20         4.7124   10.6535    2.9136 H         1 <0>         0.0866
     52 H21         5.1539    6.1939    5.5455 H         1 <0>         0.1540
     53 H22         2.8734    7.0268    6.7152 H         1 <0>         0.1263
     54 H23         4.2126    6.6351    7.8145 H         1 <0>         0.1198
     55 H24         4.1830   -1.3337    1.7043 H         1 <0>         0.4556
@<TRIPOS>BOND
     1    1    9 ar
     2    1    2 ar
     3    1   34 1
     4    2    3 ar
     5    2   35 1
     6    3    7 ar
     7    3    4 2
     8    4    5 1
     9    4   10 1
    10    5    6 1
    11    5   36 1
    12    5   37 1
    13    6    7 2
    14    6   55 1
    15    7    8 ar
    16    8    9 ar
    17    9   38 1
    18   10   15 1
    19   10   11 2
    20   11   12 1
    21   11   39 1
    22   12   13 1
    23   12   40 1
    24   12   41 1
    25   13   14 1
    26   13   16 am
    27   14   15 1
    28   14   42 1
    29   14   43 1
    30   15   44 1
    31   15   45 1
    32   16   17 2
    33   16   18 1
    34   18   19 1
    35   18   23 1
    36   18   20 1
    37   20   21 1
    38   20   46 1
    39   20   47 1
    40   21   22 1
    41   21   48 1
    42   21   49 1
    43   22   23 1
    44   22   50 1
    45   22   51 1
    46   23   24 1
    47   24   25 2
    48   24   26 2
    49   24   27 1
    50   27   32 1
    51   27   28 2
    52   28   29 1
    53   28   52 1
    54   29   30 1
    55   29   53 1
    56   29   54 1
    57   30   31 1
    58   30   32 1
    59   30   33 1
@<TRIPOS>MOLECULE
ZINC43746432
   71    77     0     0     0
SMALL
USER_CHARGES

@<TRIPOS>ATOM
      1 C1         -0.0187    1.5258    0.0104 C.3       1 <0>        -0.1537
      2 C2          0.0021   -0.0041    0.0020 C.3       1 <0>        -0.0497
      3 C3          0.7246   -0.4937   -1.2513 C.3       1 <0>        -0.1131
      4 C4          2.1227    0.1259   -1.3120 C.3       1 <0>        -0.1216
      5 C5          2.9419   -0.3333   -0.1022 C.3       1 <0>        -0.0961
      6 C6          2.1848    0.0149    1.1805 C.3       1 <0>         0.0186
      7 C7          0.7448   -0.5096    1.2462 C.3       1 <0>        -0.0486
      8 H1          0.2491   -0.1582    2.1511 H         1 <0>         0.0912
      9 C8          0.7862   -2.0363    1.1988 C.3       1 <0>        -0.1176
     10 C9         -0.6228   -2.6294    1.2203 C.3       1 <0>        -0.0989
     11 H2         -1.0926   -2.5636    2.2017 H         1 <0>         0.1293
     12 C10        -1.4858   -2.0180    0.0981 C.3       1 <0>         0.0867
     13 H3         -2.5225   -2.3209    0.2451 H         1 <0>         0.0893
     14 C11        -1.4281   -0.5287    0.0267 C.3       1 <0>        -0.1113
     15 O1         -0.9852   -2.6389   -1.0911 O.3       1 <0>        -0.3041
     16 C12        -0.7739   -3.9439   -0.8066 C.2       1 <0>         0.4758
     17 O2         -0.8034   -4.8501   -1.6052 O.2       1 <0>        -0.4433
     18 C13        -0.4901   -4.0938    0.7007 C.3       1 <0>        -0.1888
     19 H4          0.5164   -4.4732    0.8773 H         1 <0>         0.1428
     20 C14        -1.5311   -4.9967    1.3655 C.3       1 <0>         0.0072
     21 N1         -1.3084   -6.3883    0.9510 N.4       1 <0>        -0.3922
     22 C15        -0.0100   -6.8488    1.4605 C.3       1 <0>        -0.0065
     23 C16         0.2308   -8.2923    1.0131 C.3       1 <0>         0.0259
     24 N2         -0.8480   -9.1479    1.5271 N.3       1 <0>        -0.5328
     25 C17        -2.1567   -8.6839    1.0454 C.3       1 <0>         0.0184
     26 C18        -2.3779   -7.2372    1.4925 C.3       1 <0>        -0.0013
     27 C19        -0.6223  -10.5538    1.1658 C.3       1 <0>         0.1024
     28 C20        -1.6015  -11.4266    1.9078 C.ar      1 <0>        -0.0890
     29 C21        -1.2721  -11.9283    3.1533 C.ar      1 <0>        -0.0810
     30 C22        -2.1671  -12.7289    3.8381 C.ar      1 <0>        -0.0992
     31 C23        -3.3972  -13.0309    3.2768 C.ar      1 <0>         0.0443
     32 C24        -3.7291  -12.5255    2.0222 C.ar      1 <0>         0.0344
     33 C25        -2.8294  -11.7191    1.3442 C.ar      1 <0>        -0.1010
     34 O3         -4.9801  -12.9614    1.6933 O.3       1 <0>        -0.3082
     35 C26        -5.2457  -14.0684    2.5749 C.3       1 <0>         0.2126
     36 O4         -4.4404  -13.7833    3.7340 O.3       1 <0>        -0.3051
     37 C27         2.4900    1.3488    1.8572 C.3       1 <0>        -0.0280
     38 O5          2.9219    0.0974    2.3973 O.3       1 <0>        -0.3472
     39 H5          1.0039    1.9031    0.0027 H         1 <0>         0.0704
     40 H6         -0.5459    1.8868   -0.8726 H         1 <0>         0.0635
     41 H7         -0.5289    1.8773    0.9072 H         1 <0>         0.0590
     42 H8          0.8099   -1.5799   -1.2202 H         1 <0>         0.0712
     43 H9          0.1585   -0.1995   -2.1351 H         1 <0>         0.0712
     44 H10         2.6205   -0.1908   -2.2285 H         1 <0>         0.0726
     45 H11         2.0388    1.2126   -1.3020 H         1 <0>         0.0747
     46 H12         3.0943   -1.4113   -0.1537 H         1 <0>         0.0712
     47 H13         3.9076    0.1721   -0.1035 H         1 <0>         0.0764
     48 H14         1.2926   -2.3517    0.2865 H         1 <0>         0.0796
     49 H15         1.3423   -2.4055    2.0606 H         1 <0>         0.0813
     50 H16        -1.9388   -0.1236    0.9003 H         1 <0>         0.0978
     51 H17        -1.9448   -0.1909   -0.8717 H         1 <0>         0.0927
     52 H18        -1.4387   -4.9211    2.4490 H         1 <0>         0.1513
     53 H19        -2.5302   -4.6830    1.0633 H         1 <0>         0.1359
     54 H20         0.7814   -6.2101    1.0683 H         1 <0>         0.1327
     55 H21        -0.0093   -6.8011    2.5494 H         1 <0>         0.1426
     56 H22         0.2438   -8.3382   -0.0759 H         1 <0>         0.0643
     57 H23         1.1875   -8.6393    1.4035 H         1 <0>         0.1276
     58 H24        -2.1831   -8.7362   -0.0430 H         1 <0>         0.0634
     59 H25        -2.9419   -9.3165    1.4594 H         1 <0>         0.1285
     60 H26        -2.3650   -7.1875    2.5813 H         1 <0>         0.1415
     61 H27        -3.3419   -6.8864    1.1241 H         1 <0>         0.1356
     62 H28        -0.7638  -10.6803    0.0925 H         1 <0>         0.0597
     63 H29         0.3948  -10.8392    1.4344 H         1 <0>         0.1030
     64 H30        -0.3133  -11.6945    3.5920 H         1 <0>         0.1409
     65 H31        -1.9071  -13.1194    4.8108 H         1 <0>         0.1408
     66 H32        -3.0858  -11.3221    0.3731 H         1 <0>         0.1314
     67 H33        -6.3022  -14.1010    2.8412 H         1 <0>         0.1378
     68 H34        -4.9364  -15.0070    2.1151 H         1 <0>         0.0907
     69 H35         3.2420    1.9909    1.3986 H         1 <0>         0.1120
     70 H36         1.6705    1.8632    2.3592 H         1 <0>         0.1116
     71 H37        -1.3128   -6.4438   -0.0564 H         1 <0>         0.4263
@<TRIPOS>BOND
     1    1    2 1
     2    1   39 1
     3    1   40 1
     4    1   41 1
     5    2    7 1
     6    2   14 1
     7    2    3 1
     8    3    4 1
     9    3   42 1
    10    3   43 1
    11    4    5 1
    12    4   44 1
    13    4   45 1
    14    5    6 1
    15    5   46 1
    16    5   47 1
    17    6   38 1
    18    6    7 1
    19    6   37 1
    20    7    8 1
    21    7    9 1
    22    9   10 1
    23    9   48 1
    24    9   49 1
    25   10   11 1
    26   10   18 1
    27   10   12 1
    28   12   13 1
    29   12   14 1
    30   12   15 1
    31   14   50 1
    32   14   51 1
    33   15   16 1
    34   16   17 2
    35   16   18 1
    36   18   19 1
    37   18   20 1
    38   20   21 1
    39   20   52 1
    40   20   53 1
    41   21   26 1
    42   21   22 1
    43   21   71 1
    44   22   23 1
    45   22   54 1
    46   22   55 1
    47   23   24 1
    48   23   56 1
    49   23   57 1
    50   24   25 1
    51   24   27 1
    52   25   26 1
    53   25   58 1
    54   25   59 1
    55   26   60 1
    56   26   61 1
    57   27   28 1
    58   27   62 1
    59   27   63 1
    60   28   33 ar
    61   28   29 ar
    62   29   30 ar
    63   29   64 1
    64   30   31 ar
    65   30   65 1
    66   31   36 1
    67   31   32 ar
    68   32   33 ar
    69   32   34 1
    70   33   66 1
    71   34   35 1
    72   35   36 1
    73   35   67 1
    74   35   68 1
    75   37   38 1
    76   37   69 1
    77   37   70 1
@<TRIPOS>MOLECULE
ZINC63907661
   54    57     0     0     0
SMALL
USER_CHARGES

@<TRIPOS>ATOM
      1 C1         -0.5606    1.3033    0.1714 C.ar      1 <0>        -0.1457
      2 C2          0.5580    2.1473    0.1400 C.ar      1 <0>         0.0551
      3 C3          1.8225    1.6798    0.0709 C.ar      1 <0>        -0.2086
      4 C4          2.0699    0.2800    0.0260 C.ar      1 <0>         0.3313
      5 N1          3.1838   -0.4078   -0.0423 N.pl3     1 <0>        -0.5785
      6 C5          2.8509   -1.8366   -0.0615 C.3       1 <0>         0.0644
      7 C6          1.3419   -1.9118    0.0066 C.2       1 <0>         0.0680
      8 C7          0.9049   -0.6328    0.0579 C.ar      1 <0>        -0.1512
      9 C8         -0.4370   -0.0430    0.1338 C.ar      1 <0>        -0.0172
     10 C9          0.4964   -3.1592    0.0149 C.3       1 <0>        -0.0837
     11 C10         0.2519   -3.6097   -1.4023 C.2       1 <0>         0.4737
     12 O1          0.7165   -2.9822   -2.3244 O.2       1 <0>        -0.4997
     13 O2         -0.4821   -4.7080   -1.6402 O.3       1 <0>        -0.3146
     14 C11        -0.6735   -5.0768   -3.0075 C.3       1 <0>         0.0493
     15 C12        -1.5158   -6.3245   -3.0781 C.2       1 <0>         0.5176
     16 O3         -1.9131   -6.8464   -2.0580 O.2       1 <0>        -0.5122
     17 N2         -1.8276   -6.8602   -4.2748 N.am      1 <0>        -0.6019
     18 C13        -1.3480   -6.2420   -5.5189 C.3       1 <0>         0.0860
     19 C14        -0.5856   -7.2981   -6.3287 C.3       1 <0>         0.1346
     20 N3         -1.4108   -8.5112   -6.4130 N.pl3     1 <0>        -0.6606
     21 C15        -1.8904   -9.1294   -5.1689 C.3       1 <0>         0.1350
     22 C16        -2.6481   -8.0766   -4.3589 C.3       1 <0>         0.0981
     23 C17        -1.7325   -9.0640   -7.6478 C.ar      1 <0>         0.4174
     24 C18        -0.8951  -10.0213   -8.2146 C.ar      1 <0>        -0.0917
     25 C19        -1.2280  -10.5630   -9.4437 C.ar      1 <0>        -0.0114
     26 C20        -2.3907  -10.1280  -10.0665 C.ar      1 <0>        -0.2296
     27 C21        -3.1741   -9.1757   -9.4467 C.ar      1 <0>         0.1723
     28 N4         -2.8349   -8.6797   -8.2716 N.ar      1 <0>        -0.4726
     29 C22        -2.7926  -10.6898  -11.4058 C.3       1 <0>         0.5185
     30 F1         -3.5979  -11.8179  -11.2157 F         1 <0>        -0.1687
     31 F2         -3.5062   -9.7228  -12.1221 F         1 <0>        -0.1696
     32 F3         -1.6468  -11.0502  -12.1231 F         1 <0>        -0.1712
     33 Cl1         0.5469  -10.5277   -7.3912 Cl        1 <0>        -0.0262
     34 H1         -1.5468    1.7393    0.2316 H         1 <0>         0.1595
     35 H2          0.4019    3.2154    0.1721 H         1 <0>         0.1625
     36 H3          2.6508    2.3726    0.0493 H         1 <0>         0.1623
     37 H4          3.2086   -2.2933   -0.9843 H         1 <0>         0.1770
     38 H5          3.2913   -2.3366    0.8012 H         1 <0>         0.1772
     39 H6         -1.3127   -0.6746    0.1594 H         1 <0>         0.1610
     40 H7          1.0154   -3.9463    0.5619 H         1 <0>         0.1558
     41 H8         -0.4573   -2.9486    0.4988 H         1 <0>         0.1526
     42 H9         -1.1782   -4.2674   -3.5349 H         1 <0>         0.1057
     43 H10         0.2945   -5.2652   -3.4719 H         1 <0>         0.1057
     44 H11        -2.1971   -5.8795   -6.0982 H         1 <0>         0.0863
     45 H12        -0.6825   -5.4119   -5.2820 H         1 <0>         0.0895
     46 H13        -0.3894   -6.9187   -7.3315 H         1 <0>         0.0868
     47 H14         0.3565   -7.5302   -5.8319 H         1 <0>         0.0695
     48 H15        -2.5559   -9.9595   -5.4058 H         1 <0>         0.0875
     49 H16        -1.0412   -9.4920   -4.5896 H         1 <0>         0.0704
     50 H17        -2.8410   -8.4578   -3.3561 H         1 <0>         0.1056
     51 H18        -3.5919   -7.8477   -4.8538 H         1 <0>         0.0808
     52 H19        -0.5979  -11.3070   -9.9083 H         1 <0>         0.1621
     53 H20        -4.0790   -8.8348   -9.9278 H         1 <0>         0.1787
     54 H21         4.0785   -0.0346   -0.0750 H         1 <0>         0.4572
@<TRIPOS>BOND
     1    1    9 ar
     2    1    2 ar
     3    1   34 1
     4    2    3 ar
     5    2   35 1
     6    3    4 ar
     7    3   36 1
     8    4    8 ar
     9    4    5 2
    10    5    6 1
    11    5   54 1
    12    6    7 1
    13    6   37 1
    14    6   38 1
    15    7    8 2
    16    7   10 1
    17    8    9 ar
    18    9   39 1
    19   10   11 1
    20   10   40 1
    21   10   41 1
    22   11   12 2
    23   11   13 1
    24   13   14 1
    25   14   15 1
    26   14   42 1
    27   14   43 1
    28   15   16 2
    29   15   17 am
    30   17   22 1
    31   17   18 1
    32   18   19 1
    33   18   44 1
    34   18   45 1
    35   19   20 1
    36   19   46 1
    37   19   47 1
    38   20   21 1
    39   20   23 1
    40   21   22 1
    41   21   48 1
    42   21   49 1
    43   22   50 1
    44   22   51 1
    45   23   28 ar
    46   23   24 ar
    47   24   25 ar
    48   24   33 1
    49   25   26 ar
    50   25   52 1
    51   26   27 ar
    52   26   29 1
    53   27   28 ar
    54   27   53 1
    55   29   30 1
    56   29   31 1
    57   29   32 1
@<TRIPOS>MOLECULE
ZINC09605873
   45    48     0     0     0
SMALL
USER_CHARGES
1-[[5-[(3,4-dichlorophenyl)methylsulfanyl]-4-(2-pyridyl)-1,2,4-triazol-3-yl]methyl]pyrrolidin-2-one
@<TRIPOS>ATOM
      1 C1          0.7195   -4.6867   -2.6878 C.ar      1 <0>        -0.0499
      2 C2          1.0066   -5.1994   -1.4302 C.ar      1 <0>        -0.1555
      3 C3          0.3499   -4.6905   -0.3270 C.ar      1 <0>         0.1348
      4 N1         -0.5388   -3.7242   -0.4552 N.ar      1 <0>        -0.4740
      5 C4         -0.8433   -3.2134   -1.6370 C.ar      1 <0>         0.3326
      6 C5         -0.2216   -3.6770   -2.7898 C.ar      1 <0>        -0.1484
      7 N2         -1.7955   -2.1933   -1.7260 N.pl3     1 <0>        -0.4029
      8 C6         -1.8672   -1.0578   -0.9618 C.2       1 <0>         0.1913
      9 N3         -2.9044   -0.3824   -1.3685 N.2       1 <0>        -0.2659
     10 N4         -3.4846   -1.0002   -2.3344 N.2       1 <0>        -0.2800
     11 C7         -2.8505   -2.1197   -2.5950 C.2       1 <0>         0.1646
     12 S1         -3.2769   -3.3033   -3.8288 S.3       1 <0>         0.0252
     13 C8         -4.7429   -2.5090   -4.5330 C.3       1 <0>        -0.0684
     14 C9         -5.2960   -3.3675   -5.6412 C.ar      1 <0>        -0.0675
     15 C10        -4.8622   -3.1821   -6.9409 C.ar      1 <0>        -0.0815
     16 C11        -5.3644   -3.9726   -7.9572 C.ar      1 <0>        -0.0967
     17 C12        -6.3101   -4.9425   -7.6762 C.ar      1 <0>        -0.0233
     18 C13        -6.7486   -5.1244   -6.3757 C.ar      1 <0>        -0.0313
     19 C14        -6.2406   -4.3360   -5.3586 C.ar      1 <0>        -0.0782
     20 Cl1        -7.9347   -6.3414   -6.0212 Cl        1 <0>        -0.0403
     21 Cl2        -6.9461   -5.9314   -8.9534 Cl        1 <0>        -0.0413
     22 C15        -0.9249   -0.6663    0.1472 C.3       1 <0>         0.2102
     23 N5          0.1778    0.1244   -0.4052 N.am      1 <0>        -0.6161
     24 C16         0.1647    1.5862   -0.5350 C.3       1 <0>         0.1012
     25 C17         1.6405    1.9952   -0.7380 C.3       1 <0>        -0.1310
     26 C18         2.2435    0.7080   -1.3467 C.3       1 <0>        -0.1541
     27 C19         1.3313   -0.3958   -0.8587 C.2       1 <0>         0.5152
     28 O1          1.6013   -1.5781   -0.8747 O.2       1 <0>        -0.5203
     29 H1          1.2187   -5.0673   -3.5666 H         1 <0>         0.1468
     30 H2          1.7356   -5.9880   -1.3158 H         1 <0>         0.1457
     31 H3          0.5701   -5.0858    0.6537 H         1 <0>         0.1672
     32 H4         -0.4696   -3.2553   -3.7527 H         1 <0>         0.1395
     33 H5         -5.4982   -2.3868   -3.7567 H         1 <0>         0.1140
     34 H6         -4.4705   -1.5318   -4.9319 H         1 <0>         0.1153
     35 H7         -4.1275   -2.4219   -7.1613 H         1 <0>         0.1446
     36 H8         -5.0221   -3.8300   -8.9716 H         1 <0>         0.1485
     37 H9         -6.5825   -4.4770   -4.3439 H         1 <0>         0.1477
     38 H10        -0.5270   -1.5643    0.6198 H         1 <0>         0.1171
     39 H11        -1.4618   -0.0734    0.8877 H         1 <0>         0.1193
     40 H12        -0.4311    1.8829   -1.3982 H         1 <0>         0.0741
     41 H13        -0.2316    2.0420    0.3723 H         1 <0>         0.0860
     42 H14         1.7217    2.8306   -1.4333 H         1 <0>         0.0930
     43 H15         2.1134    2.2349    0.2144 H         1 <0>         0.0856
     44 H16         3.2589    0.5529   -0.9820 H         1 <0>         0.1040
     45 H17         2.2336    0.7576   -2.4355 H         1 <0>         0.1030
@<TRIPOS>BOND
     1    1    6 ar
     2    1    2 ar
     3    1   29 1
     4    2    3 ar
     5    2   30 1
     6    3    4 ar
     7    3   31 1
     8    4    5 ar
     9    5    6 ar
    10    5    7 1
    11    6   32 1
    12    7   11 1
    13    7    8 1
    14    8    9 2
    15    8   22 1
    16    9   10 1
    17   10   11 2
    18   11   12 1
    19   12   13 1
    20   13   14 1
    21   13   33 1
    22   13   34 1
    23   14   19 ar
    24   14   15 ar
    25   15   16 ar
    26   15   35 1
    27   16   17 ar
    28   16   36 1
    29   17   18 ar
    30   17   21 1
    31   18   19 ar
    32   18   20 1
    33   19   37 1
    34   22   23 1
    35   22   38 1
    36   22   39 1
    37   23   27 am
    38   23   24 1
    39   24   25 1
    40   24   40 1
    41   24   41 1
    42   25   26 1
    43   25   42 1
    44   25   43 1
    45   26   27 1
    46   26   44 1
    47   26   45 1
    48   27   28 2
@<TRIPOS>MOLECULE
ZINC16429585
   58    61     0     0     0
SMALL
USER_CHARGES
2-[4-(4-chlorophenyl)pyrimidin-2-yl]sulfanyl-1,3-bis(1-piperidyl)propane-1,3-dione
@<TRIPOS>ATOM
      1 C1          6.1072    1.6740   -4.3196 C.ar      1 <0>        -0.0770
      2 C2          7.3017    2.2481   -4.7029 C.ar      1 <0>        -0.1146
      3 C3          7.8058    3.3335   -4.0065 C.ar      1 <0>        -0.0164
      4 C4          7.1121    3.8516   -2.9260 C.ar      1 <0>        -0.1159
      5 C5          5.9141    3.2880   -2.5380 C.ar      1 <0>        -0.0575
      6 C6          5.4023    2.1951   -3.2357 C.ar      1 <0>        -0.0583
      7 C7          4.1154    1.5851   -2.8227 C.ar      1 <0>         0.2317
      8 C8          3.5946    0.4891   -3.5164 C.ar      1 <0>        -0.2250
      9 C9          2.3906   -0.0463   -3.0950 C.ar      1 <0>         0.1758
     10 N1          1.7716    0.4904   -2.0554 N.ar      1 <0>        -0.5079
     11 C10         2.2886    1.5301   -1.4156 C.ar      1 <0>         0.2755
     12 N2          3.4359    2.0763   -1.7891 N.ar      1 <0>        -0.4945
     13 S1          1.4237    2.2071   -0.0379 S.3       1 <0>         0.1128
     14 C11        -0.0148    1.1092    0.0006 C.3       1 <0>        -0.1514
     15 C12        -0.8297    1.3049   -1.2519 C.2       1 <0>         0.5392
     16 O1         -0.9159    0.4095   -2.0654 O.2       1 <0>        -0.5004
     17 N3         -1.4628    2.4749   -1.4680 N.am      1 <0>        -0.6019
     18 C13        -1.2998    3.5978   -0.5345 C.3       1 <0>         0.0778
     19 C14        -0.8550    4.8342   -1.3305 C.3       1 <0>        -0.1309
     20 C15        -1.8563    5.0950   -2.4582 C.3       1 <0>        -0.1214
     21 C16        -1.8819    3.8950   -3.4076 C.3       1 <0>        -0.1328
     22 C17        -2.3339    2.6498   -2.6382 C.3       1 <0>         0.1126
     23 C18        -0.8605    1.4313    1.2056 C.2       1 <0>         0.5410
     24 O2         -0.7219    2.4915    1.7779 O.2       1 <0>        -0.5120
     25 N4         -1.7709    0.5410    1.6474 N.am      1 <0>        -0.5939
     26 C19        -1.9546   -0.7450    0.9610 C.3       1 <0>         0.0964
     27 C20        -1.8181   -1.8739    1.9939 C.3       1 <0>        -0.1352
     28 C21        -2.8001   -1.6286    3.1419 C.3       1 <0>        -0.1223
     29 C22        -2.4629   -0.3037    3.8296 C.3       1 <0>        -0.1353
     30 C23        -2.6027    0.8407    2.8208 C.3       1 <0>         0.1103
     31 Cl1         9.3130    4.0469   -4.4894 Cl        1 <0>        -0.0610
     32 H1          5.7171    0.8245   -4.8606 H         1 <0>         0.1393
     33 H2          7.8466    1.8477   -5.5450 H         1 <0>         0.1414
     34 H3          7.5096    4.6981   -2.3859 H         1 <0>         0.1410
     35 H4          5.3739    3.6926   -1.6948 H         1 <0>         0.1467
     36 H5          4.1201    0.0698   -4.3617 H         1 <0>         0.1526
     37 H6          1.9605   -0.8935   -3.6086 H         1 <0>         0.1756
     38 H7          0.3201    0.0735    0.0580 H         1 <0>         0.1540
     39 H8         -2.2487    3.8012   -0.0383 H         1 <0>         0.0675
     40 H9         -0.5425    3.3482    0.2087 H         1 <0>         0.1211
     41 H10         0.1338    4.6603   -1.7550 H         1 <0>         0.0681
     42 H11        -0.8197    5.6991   -0.6681 H         1 <0>         0.0776
     43 H12        -1.5587    5.9874   -3.0088 H         1 <0>         0.0663
     44 H13        -2.8494    5.2441   -2.0345 H         1 <0>         0.0644
     45 H14        -0.8834    3.7300   -3.8125 H         1 <0>         0.0637
     46 H15        -2.5779    4.0912   -4.2232 H         1 <0>         0.0758
     47 H16        -2.2592    1.7744   -3.2834 H         1 <0>         0.0918
     48 H17        -3.3658    2.7749   -2.3101 H         1 <0>         0.0690
     49 H18        -2.9451   -0.7788    0.5074 H         1 <0>         0.0779
     50 H19        -1.1930   -0.8596    0.1897 H         1 <0>         0.0918
     51 H20        -0.8003   -1.8928    2.3836 H         1 <0>         0.0696
     52 H21        -2.0440   -2.8291    1.5199 H         1 <0>         0.0806
     53 H22        -2.7252   -2.4418    3.8638 H         1 <0>         0.0696
     54 H23        -3.8155   -1.5852    2.7479 H         1 <0>         0.0665
     55 H24        -1.4390   -0.3373    4.2019 H         1 <0>         0.0694
     56 H25        -3.1479   -0.1410    4.6616 H         1 <0>         0.0801
     57 H26        -2.2689    1.7727    3.2769 H         1 <0>         0.0979
     58 H27        -3.6447    0.9360    2.5153 H         1 <0>         0.0733
@<TRIPOS>BOND
     1    1    6 ar
     2    1    2 ar
     3    1   32 1
     4    2    3 ar
     5    2   33 1
     6    3    4 ar
     7    3   31 1
     8    4    5 ar
     9    4   34 1
    10    5    6 ar
    11    5   35 1
    12    6    7 1
    13    7   12 ar
    14    7    8 ar
    15    8    9 ar
    16    8   36 1
    17    9   10 ar
    18    9   37 1
    19   10   11 ar
    20   11   12 ar
    21   11   13 1
    22   13   14 1
    23   14   15 1
    24   14   23 1
    25   14   38 1
    26   15   16 2
    27   15   17 am
    28   17   22 1
    29   17   18 1
    30   18   19 1
    31   18   39 1
    32   18   40 1
    33   19   20 1
    34   19   41 1
    35   19   42 1
    36   20   21 1
    37   20   43 1
    38   20   44 1
    39   21   22 1
    40   21   45 1
    41   21   46 1
    42   22   47 1
    43   22   48 1
    44   23   24 2
    45   23   25 am
    46   25   30 1
    47   25   26 1
    48   26   27 1
    49   26   49 1
    50   26   50 1
    51   27   28 1
    52   27   51 1
    53   27   52 1
    54   28   29 1
    55   28   53 1
    56   28   54 1
    57   29   30 1
    58   29   55 1
    59   29   56 1
    60   30   57 1
    61   30   58 1
@<TRIPOS>MOLECULE
ZINC26364667
   50    54     0     0     0
SMALL
USER_CHARGES
N-(1,3-benzothiazol-2-yl)-2-[2-(2-pyridyl)thiazol-4-yl]-N-[[(2R)-tetrahydrofuran-2-yl]methyl]acetamide
@<TRIPOS>ATOM
      1 C1         -6.9075    5.9500   -6.2287 C.ar      1 <0>        -0.1049
      2 C2         -8.0314    6.7622   -6.1796 C.ar      1 <0>        -0.1053
      3 C3         -8.1454    7.7001   -5.1700 C.ar      1 <0>        -0.0608
      4 C4         -7.1479    7.8128   -4.2340 C.ar      1 <0>        -0.1514
      5 C5         -5.9894    7.0031   -4.2523 C.ar      1 <0>         0.1076
      6 C6         -5.9065    6.0556   -5.2990 C.ar      1 <0>        -0.0685
      7 N1         -5.0989    7.2335   -3.2634 N.2       1 <0>        -0.5096
      8 C7         -5.2893    8.1481   -2.3414 C.2       1 <0>         0.3858
      9 S1         -6.8749    8.8310   -2.8038 S.3       1 <0>        -0.0146
     10 N2         -4.4720    8.4922   -1.2770 N.am      1 <0>        -0.5098
     11 C8         -4.8790    9.5554   -0.3549 C.3       1 <0>         0.0978
     12 C9         -4.3524   10.8995   -0.8620 C.3       1 <0>         0.0530
     13 H1         -4.7061   11.0725   -1.8891 H         1 <0>         0.0795
     14 C10        -4.7689   12.0242    0.1057 C.3       1 <0>        -0.1496
     15 C11        -3.4279   12.6537    0.5553 C.3       1 <0>        -0.1558
     16 C12        -2.4661   12.2122   -0.5770 C.3       1 <0>         0.0460
     17 O1         -2.9157   10.8774   -0.9034 O.3       1 <0>        -0.3694
     18 C13        -3.3026    7.8490   -1.0899 C.2       1 <0>         0.5224
     19 O2         -2.9657    6.9689   -1.8532 O.2       1 <0>        -0.4428
     20 C14        -2.4135    8.2234    0.0679 C.3       1 <0>        -0.0703
     21 C15        -1.1775    7.3614    0.0515 C.2       1 <0>         0.0682
     22 C16         0.0553    7.9375    0.0433 C.2       1 <0>        -0.1827
     23 S2          1.0979    6.4842    0.0338 S.3       1 <0>         0.0309
     24 C17        -0.2175    5.2731    0.0315 C.2       1 <0>         0.1513
     25 N3         -1.2880    6.0551    0.0455 N.2       1 <0>        -0.4408
     26 C18        -0.1339    3.7972    0.0228 C.ar      1 <0>         0.2034
     27 C19         1.1147    3.1746    0.0080 C.ar      1 <0>        -0.1459
     28 C20         1.1763    1.7924    0.0005 C.ar      1 <0>        -0.0701
     29 C21        -0.0126    1.0758    0.0080 C.ar      1 <0>        -0.1595
     30 C22        -1.2159    1.7572    0.0173 C.ar      1 <0>         0.1075
     31 N4         -1.2479    3.0740    0.0295 N.ar      1 <0>        -0.4436
     32 H2         -6.8198    5.2176   -7.0175 H         1 <0>         0.1342
     33 H3         -8.8093    6.6626   -6.9221 H         1 <0>         0.1387
     34 H4         -9.0139    8.3400   -5.1183 H         1 <0>         0.1329
     35 H5         -5.0448    5.4079   -5.3660 H         1 <0>         0.1327
     36 H6         -5.9769    9.5900   -0.2969 H         1 <0>         0.1060
     37 H7         -4.4653    9.3527    0.6440 H         1 <0>         0.1135
     38 H8         -5.4069   12.7465   -0.4246 H         1 <0>         0.0839
     39 H9         -5.3265   11.5934    0.9504 H         1 <0>         0.0848
     40 H10        -3.5400   13.7459    0.6231 H         1 <0>         0.0845
     41 H11        -3.1462   12.2523    1.5399 H         1 <0>         0.0811
     42 H12        -2.5587   12.9039   -1.4272 H         1 <0>         0.0657
     43 H13        -1.4311   12.2252   -0.2048 H         1 <0>         0.0988
     44 H14        -2.1240    9.2811   -0.0192 H         1 <0>         0.1405
     45 H15        -2.9562    8.0683    1.0121 H         1 <0>         0.1104
     46 H16         0.3285    8.9823    0.0463 H         1 <0>         0.2037
     47 H17         2.0202    3.7632    0.0028 H         1 <0>         0.1389
     48 H18         2.1282    1.2823   -0.0114 H         1 <0>         0.1445
     49 H19         0.0021   -0.0041    0.0020 H         1 <0>         0.1427
     50 H20        -2.1423    1.2020    0.0187 H         1 <0>         0.1644
@<TRIPOS>BOND
     1    1    6 ar
     2    1    2 ar
     3    1   32 1
     4    2    3 ar
     5    2   33 1
     6    3    4 ar
     7    3   34 1
     8    4    9 1
     9    4    5 ar
    10    5    6 ar
    11    5    7 1
    12    6   35 1
    13    7    8 2
    14    8    9 1
    15    8   10 1
    16   10   11 1
    17   10   18 am
    18   11   12 1
    19   11   36 1
    20   11   37 1
    21   12   13 1
    22   12   17 1
    23   12   14 1
    24   14   15 1
    25   14   38 1
    26   14   39 1
    27   15   16 1
    28   15   40 1
    29   15   41 1
    30   16   17 1
    31   16   42 1
    32   16   43 1
    33   18   19 2
    34   18   20 1
    35   20   21 1
    36   20   44 1
    37   20   45 1
    38   21   25 1
    39   21   22 2
    40   22   23 1
    41   22   46 1
    42   23   24 1
    43   24   25 2
    44   24   26 1
    45   26   31 ar
    46   26   27 ar
    47   27   28 ar
    48   27   47 1
    49   28   29 ar
    50   28   48 1
    51   29   30 ar
    52   29   49 1
    53   30   31 ar
    54   30   50 1
@<TRIPOS>MOLECULE
ZINC39770641
   61    63     0     0     0
SMALL
USER_CHARGES

@<TRIPOS>ATOM
      1 C1          2.7785    2.9040   -2.2070 C.3       1 <0>        -0.1530
      2 C2          2.4421    1.5268   -1.6316 C.3       1 <0>        -0.1176
      3 C3          2.6954    0.4547   -2.6934 C.3       1 <0>        -0.1388
      4 C4          2.3590   -0.9225   -2.1181 C.3       1 <0>         0.0866
      5 N1          2.4822   -1.9346   -3.1701 N.am      1 <0>        -0.4921
      6 C5          1.3710   -2.3455   -3.8337 C.2       1 <0>         0.5052
      7 C6          1.4621   -3.3149   -4.8461 C.2       1 <0>        -0.2236
      8 C7          2.7162   -3.8595   -5.1703 C.2       1 <0>         0.1330
      9 C8          3.8401   -3.4211   -4.4757 C.2       1 <0>        -0.1833
     10 C9          3.6947   -2.4364   -3.4655 C.2       1 <0>         0.5511
     11 O1          4.6754   -2.0451   -2.8573 O.2       1 <0>        -0.5196
     12 C10         5.1325   -3.9565   -4.7818 C.1       1 <0>         0.2805
     13 N2          6.1578   -4.3812   -5.0245 N.1       1 <0>        -0.4164
     14 C11         2.8424   -4.9013   -6.2519 C.3       1 <0>        -0.1398
     15 C12         0.2604   -3.7546   -5.5573 C.2       1 <0>         0.1380
     16 C13         0.1330   -3.5153   -6.8909 C.2       1 <0>        -0.2428
     17 C14         0.9744   -2.7590   -7.7626 C.2       1 <0>         0.5374
     18 O2          1.9774   -2.2089   -7.3449 O.2       1 <0>        -0.4459
     19 N3          0.6319   -2.6745   -9.0363 N.am      1 <0>        -0.5250
     20 C15        -0.4812   -3.2851   -9.4994 C.2       1 <0>         0.2788
     21 S1         -1.1085   -3.3080  -11.0922 S.2       1 <0>        -0.3211
     22 S2         -1.1286   -4.0682   -8.0301 S.3       1 <0>         0.0647
     23 C16         1.4713   -1.9071   -9.9598 C.3       1 <0>         0.0516
     24 N4          0.1563   -1.8130   -3.5142 N.pl3     1 <0>        -0.6625
     25 C17        -0.1776   -0.4321   -3.8889 C.3       1 <0>         0.1358
     26 C18        -1.4980   -0.4375   -4.6655 C.3       1 <0>        -0.1052
     27 H1         -1.8063    0.5886   -4.8661 H         1 <0>         0.0848
     28 C19        -2.5725   -1.1399   -3.8322 C.3       1 <0>        -0.1073
     29 C20        -2.1558   -2.5903   -3.5777 C.3       1 <0>        -0.1143
     30 H2         -2.0153   -3.1010   -4.5304 H         1 <0>         0.0779
     31 C21        -0.8451   -2.6113   -2.7941 C.3       1 <0>         0.1363
     32 C22        -3.2461   -3.3011   -2.7733 C.3       1 <0>        -0.1486
     33 C23        -1.3092   -1.1820   -5.9887 C.3       1 <0>        -0.1596
     34 H3          3.8270    2.9274   -2.5040 H         1 <0>         0.0562
     35 H4          2.1502    3.0979   -3.0763 H         1 <0>         0.0537
     36 H5          2.5980    3.6677   -1.4505 H         1 <0>         0.0582
     37 H6          3.0704    1.3328   -0.7623 H         1 <0>         0.0675
     38 H7          1.3936    1.5033   -1.3346 H         1 <0>         0.0638
     39 H8          2.0671    0.6487   -3.5627 H         1 <0>         0.0675
     40 H9          3.7439    0.4781   -2.9904 H         1 <0>         0.0773
     41 H10         3.0487   -1.1558   -1.3070 H         1 <0>         0.1039
     42 H11         1.3379   -0.9174   -1.7366 H         1 <0>         0.1012
     43 H12         3.0913   -4.4166   -7.1960 H         1 <0>         0.0912
     44 H13         3.6300   -5.6066   -5.9869 H         1 <0>         0.0863
     45 H14         1.8971   -5.4341   -6.3552 H         1 <0>         0.0818
     46 H15        -0.5251   -4.2690   -5.0236 H         1 <0>         0.1578
     47 H16         2.2280   -2.5616  -10.3924 H         1 <0>         0.0881
     48 H17         0.8516   -1.4928  -10.7551 H         1 <0>         0.1066
     49 H18         1.9587   -1.0959   -9.4191 H         1 <0>         0.0993
     50 H19        -0.2849    0.1747   -2.9898 H         1 <0>         0.0696
     51 H20         0.6138   -0.0222   -4.5165 H         1 <0>         0.0780
     52 H21        -2.6888   -0.6230   -2.8796 H         1 <0>         0.0679
     53 H22        -3.5192   -1.1234   -4.3721 H         1 <0>         0.0703
     54 H23        -0.4940   -3.6389   -2.6997 H         1 <0>         0.0821
     55 H24        -1.0081   -2.1862   -1.8038 H         1 <0>         0.0740
     56 H25        -4.1805   -3.2848   -3.3343 H         1 <0>         0.0631
     57 H26        -2.9489   -4.3341   -2.5923 H         1 <0>         0.0590
     58 H27        -3.3855   -2.7909   -1.8203 H         1 <0>         0.0591
     59 H28        -1.2398   -2.2526   -5.7965 H         1 <0>         0.0686
     60 H29        -2.1596   -0.9844   -6.6413 H         1 <0>         0.0575
     61 H30        -0.3937   -0.8393   -6.4710 H         1 <0>         0.0456
@<TRIPOS>BOND
     1    1    2 1
     2    1   34 1
     3    1   35 1
     4    1   36 1
     5    2    3 1
     6    2   37 1
     7    2   38 1
     8    3    4 1
     9    3   39 1
    10    3   40 1
    11    4    5 1
    12    4   41 1
    13    4   42 1
    14    5   10 am
    15    5    6 1
    16    6    7 2
    17    6   24 1
    18    7    8 1
    19    7   15 1
    20    8    9 2
    21    8   14 1
    22    9   10 1
    23    9   12 1
    24   10   11 2
    25   12   13 3
    26   14   43 1
    27   14   44 1
    28   14   45 1
    29   15   16 2
    30   15   46 1
    31   16   22 1
    32   16   17 1
    33   17   18 2
    34   17   19 am
    35   19   20 1
    36   19   23 1
    37   20   21 2
    38   20   22 1
    39   23   47 1
    40   23   48 1
    41   23   49 1
    42   24   31 1
    43   24   25 1
    44   25   26 1
    45   25   50 1
    46   25   51 1
    47   26   27 1
    48   26   28 1
    49   26   33 1
    50   28   29 1
    51   28   52 1
    52   28   53 1
    53   29   30 1
    54   29   31 1
    55   29   32 1
    56   31   54 1
    57   31   55 1
    58   32   56 1
    59   32   57 1
    60   32   58 1
    61   33   59 1
    62   33   60 1
    63   33   61 1
@<TRIPOS>MOLECULE
ZINC41654113
   52    56     0     0     0
SMALL
USER_CHARGES

@<TRIPOS>ATOM
      1 C1         -0.0206    1.4233    0.0105 C.3       1 <0>         0.0238
      2 O1          0.0169   -0.0051   -0.0075 O.3       1 <0>        -0.3020
      3 C2          0.6367   -0.6188    1.0337 C.ar      1 <0>         0.1210
      4 C3          1.1921    0.1418    2.0544 C.ar      1 <0>        -0.1804
      5 C4          1.8219   -0.4742    3.1129 C.ar      1 <0>        -0.0854
      6 C5          1.9033   -1.8717    3.1614 C.ar      1 <0>        -0.0834
      7 C6          1.3428   -2.6375    2.1313 C.ar      1 <0>        -0.1447
      8 C7          0.7085   -2.0110    1.0772 C.ar      1 <0>         0.0952
      9 O2          0.1579   -2.7514    0.0782 O.3       1 <0>        -0.3050
     10 C8          0.2682   -4.1720    0.1871 C.3       1 <0>         0.0238
     11 C9          2.5743   -2.5314    4.2879 C.2       1 <0>        -0.0080
     12 C10         3.2249   -1.7888    5.2200 C.2       1 <0>        -0.0454
     13 C11         4.0331   -2.3064    6.3334 C.2       1 <0>         0.4194
     14 O3          4.2589   -3.4711    6.6132 O.2       1 <0>        -0.4220
     15 C12         4.5097   -1.1009    7.0354 C.ar      1 <0>        -0.2933
     16 C13         5.3111   -0.9047    8.1607 C.ar      1 <0>         0.0263
     17 C14         5.5873    0.3627    8.5855 C.ar      1 <0>        -0.1809
     18 C15         5.0730    1.4638    7.9002 C.ar      1 <0>         0.2112
     19 C16         4.2786    1.2828    6.7816 C.ar      1 <0>        -0.1859
     20 C17         3.9862   -0.0024    6.3364 C.ar      1 <0>         0.1775
     21 O4          3.2518   -0.4368    5.2892 O.3       1 <0>        -0.2067
     22 C18         3.7230    2.4641    6.0278 C.3       1 <0>         0.1003
     23 N1          3.7968    3.6656    6.8710 N.3       1 <0>        -0.5532
     24 C19         5.1450    3.7986    7.4472 C.3       1 <0>         0.2196
     25 O5          5.3637    2.7127    8.3507 O.3       1 <0>        -0.2901
     26 C20         3.4291    4.8667    6.1093 C.3       1 <0>         0.1439
     27 C21         3.2771    6.0324    7.0521 C.2       1 <0>        -0.1497
     28 C22         4.2089    6.9294    7.4576 C.2       1 <0>        -0.1526
     29 C23         3.8389    7.9288    8.3380 C.2       1 <0>        -0.1600
     30 C24         2.5552    7.9823    8.7697 C.2       1 <0>        -0.1702
     31 S1          1.8212    6.5952    7.9185 S.3       1 <0>         0.0663
     32 H1          0.9971    1.8134    0.0167 H         1 <0>         0.0570
     33 H2         -0.5427    1.7842   -0.8757 H         1 <0>         0.1036
     34 H3         -0.5449    1.7617    0.9041 H         1 <0>         0.0576
     35 H4          1.1301    1.2194    2.0178 H         1 <0>         0.1399
     36 H5          2.2531    0.1199    3.9051 H         1 <0>         0.1492
     37 H6          1.4031   -3.7154    2.1636 H         1 <0>         0.1430
     38 H7          1.3209   -4.4536    0.2144 H         1 <0>         0.0565
     39 H8         -0.2208   -4.5053    1.1025 H         1 <0>         0.0567
     40 H9         -0.2111   -4.6407   -0.6723 H         1 <0>         0.1032
     41 H10         2.5505   -3.6076    4.3754 H         1 <0>         0.1652
     42 H11         5.7116   -1.7538    8.6945 H         1 <0>         0.1454
     43 H12         6.2070    0.5140    9.4570 H         1 <0>         0.1480
     44 H13         4.3050    2.6215    5.1197 H         1 <0>         0.0600
     45 H14         2.6836    2.2696    5.7632 H         1 <0>         0.1029
     46 H15         5.8882    3.7671    6.6505 H         1 <0>         0.0504
     47 H16         5.2214    4.7434    7.9853 H         1 <0>         0.1293
     48 H17         4.2091    5.0878    5.3807 H         1 <0>         0.0688
     49 H18         2.4861    4.6934    5.5907 H         1 <0>         0.1019
     50 H19         5.2254    6.8640    7.0985 H         1 <0>         0.1309
     51 H20         4.5620    8.6558    8.6770 H         1 <0>         0.1348
     52 H21         2.0948    8.6844    9.4491 H         1 <0>         0.1865
@<TRIPOS>BOND
     1    1    2 1
     2    1   32 1
     3    1   33 1
     4    1   34 1
     5    2    3 1
     6    3    8 ar
     7    3    4 ar
     8    4    5 ar
     9    4   35 1
    10    5    6 ar
    11    5   36 1
    12    6    7 ar
    13    6   11 1
    14    7    8 ar
    15    7   37 1
    16    8    9 1
    17    9   10 1
    18   10   38 1
    19   10   39 1
    20   10   40 1
    21   11   12 2
    22   11   41 1
    23   12   21 1
    24   12   13 1
    25   13   14 2
    26   13   15 1
    27   15   20 ar
    28   15   16 ar
    29   16   17 ar
    30   16   42 1
    31   17   18 ar
    32   17   43 1
    33   18   25 1
    34   18   19 ar
    35   19   20 ar
    36   19   22 1
    37   20   21 1
    38   22   23 1
    39   22   44 1
    40   22   45 1
    41   23   24 1
    42   23   26 1
    43   24   25 1
    44   24   46 1
    45   24   47 1
    46   26   27 1
    47   26   48 1
    48   26   49 1
    49   27   31 1
    50   27   28 2
    51   28   29 1
    52   28   50 1
    53   29   30 2
    54   29   51 1
    55   30   31 1
    56   30   52 1
@<TRIPOS>MOLECULE
ZINC09633693
   52    55     0     0     0
SMALL
USER_CHARGES
N-[(2-benzothiazol-2-ylpyrrolidin-1-yl)carbonylmethyl]-N-(o-tolyl)methanesulfonamide
@<TRIPOS>ATOM
      1 C1         -0.3752   -5.7073    6.8508 C.3       1 <0>        -0.1243
      2 C2          0.1485   -4.2957    6.9166 C.ar      1 <0>        -0.0558
      3 C3         -0.3108   -3.4327    7.8924 C.ar      1 <0>        -0.1196
      4 C4          0.1699   -2.1378    7.9541 C.ar      1 <0>        -0.1011
      5 C5          1.1113   -1.7019    7.0394 C.ar      1 <0>        -0.1250
      6 C6          1.5783   -2.5609    6.0644 C.ar      1 <0>        -0.1002
      7 C7          1.0939   -3.8613    5.9966 C.ar      1 <0>         0.1225
      8 N1          1.5609   -4.7316    5.0089 N.pl3     1 <0>        -0.9289
      9 C8          0.9365   -4.7381    3.6836 C.3       1 <0>         0.1018
     10 C9          1.5796   -3.6838    2.8201 C.2       1 <0>         0.5110
     11 O1          2.4315   -2.9561    3.2846 O.2       1 <0>        -0.5204
     12 N2          1.2082   -3.5494    1.5315 N.am      1 <0>        -0.6020
     13 C10         0.1898   -4.3620    0.8417 C.3       1 <0>         0.0929
     14 C11         0.5610   -4.2723   -0.6596 C.3       1 <0>        -0.1294
     15 C12         1.0488   -2.8037   -0.7726 C.3       1 <0>        -0.1213
     16 C13         1.7509   -2.5675    0.5812 C.3       1 <0>         0.2271
     17 H1          2.8261   -2.7107    0.4738 H         1 <0>         0.1074
     18 C14         1.4663   -1.1704    1.0693 C.2       1 <0>         0.1308
     19 N3          0.3539   -0.6941    1.5534 N.2       1 <0>        -0.4912
     20 C15         0.2298    0.5869    1.9589 C.ar      1 <0>         0.0783
     21 C16        -0.8974    1.2443    2.4999 C.ar      1 <0>        -0.0582
     22 C17        -0.8322    2.5558    2.8554 C.ar      1 <0>        -0.1113
     23 C18         0.3330    3.2946    2.7026 C.ar      1 <0>        -0.0932
     24 C19         1.4577    2.6877    2.1764 C.ar      1 <0>        -0.0676
     25 C20         1.4021    1.3635    1.8147 C.ar      1 <0>        -0.1499
     26 S1          2.5418    0.1916    1.1230 S.3       1 <0>         0.0397
     27 S2          2.8203   -5.7559    5.3359 S.o2      1 <0>         2.5986
     28 O2          2.7976   -5.9193    6.7473 O.2       1 <0>        -0.9370
     29 O3          2.6166   -6.8675    4.4745 O.2       1 <0>        -0.9534
     30 C21         4.3059   -4.8424    4.8365 C.3       1 <0>        -0.6600
     31 H2          0.2007   -6.3403    7.5258 H         1 <0>         0.0824
     32 H3         -1.4241   -5.7198    7.1471 H         1 <0>         0.0720
     33 H4         -0.2810   -6.0826    5.8318 H         1 <0>         0.0641
     34 H5         -1.0459   -3.7699    8.6081 H         1 <0>         0.1279
     35 H6         -0.1904   -1.4652    8.7185 H         1 <0>         0.1252
     36 H7          1.4845   -0.6897    7.0902 H         1 <0>         0.1236
     37 H8          2.3168   -2.2213    5.3532 H         1 <0>         0.1398
     38 H9         -0.1283   -4.5269    3.7826 H         1 <0>         0.1199
     39 H10         1.0715   -5.7169    3.2232 H         1 <0>         0.1296
     40 H11         0.2351   -5.3964    1.1825 H         1 <0>         0.0876
     41 H12        -0.8046   -3.9500    1.0135 H         1 <0>         0.0798
     42 H13         1.3613   -4.9698   -0.9066 H         1 <0>         0.0848
     43 H14        -0.3122   -4.4441   -1.2890 H         1 <0>         0.0940
     44 H15         0.2043   -2.1250   -0.8927 H         1 <0>         0.0871
     45 H16         1.7535   -2.6937   -1.5968 H         1 <0>         0.0952
     46 H17        -1.8208    0.7001    2.6324 H         1 <0>         0.1307
     47 H18        -1.7101    3.0354    3.2624 H         1 <0>         0.1345
     48 H19         0.3604    4.3347    2.9921 H         1 <0>         0.1394
     49 H20         2.3718    3.2490    2.0510 H         1 <0>         0.1340
     50 H21         4.3234   -3.8750    5.3384 H         1 <0>         0.1322
     51 H22         5.1929   -5.4119    5.1140 H         1 <0>         0.1274
     52 H23         4.2939   -4.6916    3.7571 H         1 <0>         0.1287
@<TRIPOS>BOND
     1    1    2 1
     2    1   31 1
     3    1   32 1
     4    1   33 1
     5    2    7 ar
     6    2    3 ar
     7    3    4 ar
     8    3   34 1
     9    4    5 ar
    10    4   35 1
    11    5    6 ar
    12    5   36 1
    13    6    7 ar
    14    6   37 1
    15    7    8 1
    16    8    9 1
    17    8   27 1
    18    9   10 1
    19    9   38 1
    20    9   39 1
    21   10   11 2
    22   10   12 am
    23   12   16 1
    24   12   13 1
    25   13   14 1
    26   13   40 1
    27   13   41 1
    28   14   15 1
    29   14   42 1
    30   14   43 1
    31   15   16 1
    32   15   44 1
    33   15   45 1
    34   16   17 1
    35   16   18 1
    36   18   26 1
    37   18   19 2
    38   19   20 1
    39   20   25 ar
    40   20   21 ar
    41   21   22 ar
    42   21   46 1
    43   22   23 ar
    44   22   47 1
    45   23   24 ar
    46   23   48 1
    47   24   25 ar
    48   24   49 1
    49   25   26 1
    50   27   28 2
    51   27   29 2
    52   27   30 1
    53   30   50 1
    54   30   51 1
    55   30   52 1
@<TRIPOS>MOLECULE
ZINC14998255
   53    57     0     0     0
SMALL
USER_CHARGES
[4-(2-phenethylimidazo[5,4-b]pyridin-3-yl)-1-piperidyl]-thiazol-5-yl-methanone
@<TRIPOS>ATOM
      1 C1          4.0305   -4.0436   -0.8672 C.ar      1 <0>        -0.1208
      2 C2          2.7038   -3.6555   -0.8610 C.ar      1 <0>        -0.1180
      3 C3          2.3713   -2.3274   -1.0514 C.ar      1 <0>        -0.1163
      4 C4          3.3655   -1.3873   -1.2484 C.ar      1 <0>        -0.0859
      5 C5          4.6919   -1.7763   -1.2603 C.ar      1 <0>        -0.1123
      6 C6          5.0247   -3.1036   -1.0642 C.ar      1 <0>        -0.1168
      7 C7          3.0029    0.0605   -1.4564 C.3       1 <0>        -0.0739
      8 C8          2.9520    0.7730   -0.1034 C.3       1 <0>        -0.0377
      9 C9          2.5895    2.2209   -0.3114 C.2       1 <0>         0.2985
     10 N1          3.4438    3.1830   -0.5043 N.2       1 <0>        -0.4803
     11 C10         2.7787    4.3560   -0.6538 C.ar      1 <0>         0.0015
     12 C11         3.1807    5.6761   -0.8799 C.ar      1 <0>        -0.0202
     13 C12         2.2021    6.6446   -0.9970 C.ar      1 <0>        -0.1826
     14 C13         0.8683    6.2872   -0.8762 C.ar      1 <0>         0.1365
     15 N2          0.5105    5.0387   -0.6588 N.ar      1 <0>        -0.4800
     16 C14         1.4060    4.0706   -0.5459 C.ar      1 <0>         0.2445
     17 N3          1.3205    2.7130   -0.3244 N.pl3     1 <0>        -0.4735
     18 C15         0.0892    1.9403   -0.1424 C.3       1 <0>         0.1458
     19 C16        -0.6665    2.4657    1.0803 C.3       1 <0>        -0.1452
     20 C17        -1.9355    1.6335    1.2880 C.3       1 <0>         0.1112
     21 N4         -2.7177    1.6458    0.0444 N.am      1 <0>        -0.6093
     22 C18        -2.0608    1.2453   -1.2074 C.3       1 <0>         0.1215
     23 C19        -0.7902    2.0819   -1.3870 C.3       1 <0>        -0.1474
     24 C20        -4.0133    2.0171    0.0517 C.2       1 <0>         0.6150
     25 O1         -4.6138    2.1511   -0.9982 O.2       1 <0>        -0.5142
     26 C21        -4.6996    2.2595    1.3252 C.2       1 <0>        -0.2606
     27 C22        -5.9435    2.7991    1.5664 C.2       1 <0>         0.1192
     28 N5         -6.3335    2.9113    2.8102 N.2       1 <0>        -0.5151
     29 C23        -5.5710    2.5244    3.8119 C.2       1 <0>         0.0694
     30 S1         -4.1578    1.9298    2.9962 S.3       1 <0>         0.1013
     31 H1          4.2903   -5.0812   -0.7177 H         1 <0>         0.1219
     32 H2          1.9270   -4.3900   -0.7071 H         1 <0>         0.1223
     33 H3          1.3347   -2.0241   -1.0466 H         1 <0>         0.1199
     34 H4          5.4684   -1.0426   -1.4186 H         1 <0>         0.1242
     35 H5          6.0613   -3.4068   -1.0687 H         1 <0>         0.1232
     36 H6          2.0273    0.1252   -1.9381 H         1 <0>         0.0733
     37 H7          3.7527    0.5355   -2.0892 H         1 <0>         0.0843
     38 H8          3.9277    0.7083    0.3783 H         1 <0>         0.1074
     39 H9          2.2022    0.2980    0.5293 H         1 <0>         0.0879
     40 H10         4.2264    5.9299   -0.9716 H         1 <0>         0.1412
     41 H11         2.4750    7.6744   -1.1748 H         1 <0>         0.1446
     42 H12         0.1069    7.0483   -0.9619 H         1 <0>         0.1651
     43 H13         0.3385    0.8900    0.0084 H         1 <0>         0.1067
     44 H14        -0.0312    2.3861    1.9624 H         1 <0>         0.0860
     45 H15        -0.9378    3.5091    0.9196 H         1 <0>         0.0922
     46 H16        -2.5269    2.0644    2.0959 H         1 <0>         0.0902
     47 H17        -1.6633    0.6082    1.5383 H         1 <0>         0.0852
     48 H18        -2.7349    1.4200   -2.0459 H         1 <0>         0.1065
     49 H19        -1.7988    0.1883   -1.1605 H         1 <0>         0.0779
     50 H20        -1.0603    3.1289   -1.5244 H         1 <0>         0.0918
     51 H21        -0.2427    1.7297   -2.2612 H         1 <0>         0.0844
     52 H22        -6.5778    3.1203    0.7534 H         1 <0>         0.1827
     53 H23        -5.7749    2.5625    4.8717 H         1 <0>         0.2270
@<TRIPOS>BOND
     1    1    6 ar
     2    1    2 ar
     3    1   31 1
     4    2    3 ar
     5    2   32 1
     6    3    4 ar
     7    3   33 1
     8    4    5 ar
     9    4    7 1
    10    5    6 ar
    11    5   34 1
    12    6   35 1
    13    7    8 1
    14    7   36 1
    15    7   37 1
    16    8    9 1
    17    8   38 1
    18    8   39 1
    19    9   17 1
    20    9   10 2
    21   10   11 1
    22   11   16 ar
    23   11   12 ar
    24   12   13 ar
    25   12   40 1
    26   13   14 ar
    27   13   41 1
    28   14   15 ar
    29   14   42 1
    30   15   16 ar
    31   16   17 1
    32   17   18 1
    33   18   23 1
    34   18   19 1
    35   18   43 1
    36   19   20 1
    37   19   44 1
    38   19   45 1
    39   20   21 1
    40   20   46 1
    41   20   47 1
    42   21   22 1
    43   21   24 am
    44   22   23 1
    45   22   48 1
    46   22   49 1
    47   23   50 1
    48   23   51 1
    49   24   25 2
    50   24   26 1
    51   26   30 1
    52   26   27 2
    53   27   28 1
    54   27   52 1
    55   28   29 2
    56   29   30 1
    57   29   53 1
@<TRIPOS>MOLECULE
ZINC33300324
   43    46     0     0     0
SMALL
USER_CHARGES
3-[(2-chloro-6-fluoro-phenyl)methylsulfanyl]-8-pyrrolidin-1-ylsulfonyl-[1,2,4]triazolo[4,3-a]pyridine
@<TRIPOS>ATOM
      1 C1          1.0334   -7.2496   -0.0456 C.ar      1 <0>        -0.0640
      2 C2          0.9087   -6.5793    1.1569 C.ar      1 <0>        -0.1485
      3 C3          0.6363   -5.2220    1.1677 C.ar      1 <0>         0.1359
      4 C4          0.4889   -4.5366   -0.0263 C.ar      1 <0>        -0.1152
      5 C5          0.6084   -5.2099   -1.2283 C.ar      1 <0>         0.0081
      6 C6          0.8858   -6.5657   -1.2374 C.ar      1 <0>        -0.1196
      7 Cl1         0.4167   -4.3531   -2.7259 Cl        1 <0>        -0.0404
      8 C7          0.1925   -3.0591   -0.0159 C.3       1 <0>        -0.0662
      9 S1          1.7503   -2.1298   -0.0256 S.3       1 <0>         0.0184
     10 C8          1.2405   -0.4432   -0.0122 C.2       1 <0>         0.1299
     11 N1          0.0021   -0.0041    0.0020 N.2       1 <0>        -0.2380
     12 N2         -0.0154    1.2824    0.0091 N.2       1 <0>        -0.2676
     13 C9          1.2214    1.7441   -0.0002 C.2       1 <0>         0.2566
     14 N3          2.0581    0.6481   -0.0141 N.pl3     1 <0>        -0.3874
     15 C10         3.4151    0.8139   -0.0257 C.2       1 <0>         0.1323
     16 C11         3.9527    2.0501   -0.0239 C.2       1 <0>        -0.1654
     17 C12         3.1243    3.1878   -0.0094 C.2       1 <0>         0.0525
     18 C13         1.7732    3.0411    0.0023 C.2       1 <0>        -0.6527
     19 S2          0.7234    4.4561    0.0199 S.o2      1 <0>         2.7189
     20 O1         -0.2285    4.2427    1.0531 O.2       1 <0>        -0.9273
     21 O2          1.5745    5.5936   -0.0088 O.2       1 <0>        -0.9471
     22 N4         -0.1185    4.4589   -1.4061 N.pl3     1 <0>        -1.0068
     23 C14         0.3077    5.1137   -2.6516 C.3       1 <0>         0.1135
     24 C15        -0.7993    4.8710   -3.6990 C.3       1 <0>        -0.1312
     25 C16        -2.0473    4.5849   -2.8226 C.3       1 <0>        -0.1242
     26 C17        -1.4226    3.8105   -1.6352 C.3       1 <0>         0.1216
     27 F1          0.5148   -4.5664    2.3428 F         1 <0>        -0.1218
     28 H1          1.2458   -8.3084   -0.0537 H         1 <0>         0.1491
     29 H2          1.0241   -7.1144    2.0879 H         1 <0>         0.1489
     30 H3          0.9831   -7.0904   -2.1764 H         1 <0>         0.1471
     31 H4         -0.3964   -2.7970   -0.9073 H         1 <0>         0.1210
     32 H5         -0.3797   -2.8062    0.8889 H         1 <0>         0.1179
     33 H6          4.0609   -0.0517   -0.0361 H         1 <0>         0.1814
     34 H7          5.0262    2.1682   -0.0332 H         1 <0>         0.1739
     35 H8          3.5614    4.1754   -0.0073 H         1 <0>         0.1725
     36 H9          0.4407    6.1909   -2.4726 H         1 <0>         0.0764
     37 H10         1.2599    4.6776   -2.9879 H         1 <0>         0.0628
     38 H11        -0.9166    5.7690   -4.3233 H         1 <0>         0.0834
     39 H12        -0.5223    4.0166   -4.3340 H         1 <0>         0.0742
     40 H13        -2.5118    5.5364   -2.5244 H         1 <0>         0.0799
     41 H14        -2.7705    3.9883   -3.3980 H         1 <0>         0.0855
     42 H15        -1.2667    2.7490   -1.8780 H         1 <0>         0.0731
     43 H16        -2.0374    3.8924   -0.7268 H         1 <0>         0.0885
@<TRIPOS>BOND
     1    1    6 ar
     2    1    2 ar
     3    1   28 1
     4    2    3 ar
     5    2   29 1
     6    3    4 ar
     7    3   27 1
     8    4    5 ar
     9    4    8 1
    10    5    6 ar
    11    5    7 1
    12    6   30 1
    13    8    9 1
    14    8   31 1
    15    8   32 1
    16    9   10 1
    17   10   14 1
    18   10   11 2
    19   11   12 1
    20   12   13 2
    21   13   18 1
    22   13   14 1
    23   14   15 1
    24   15   16 2
    25   15   33 1
    26   16   17 1
    27   16   34 1
    28   17   18 2
    29   17   35 1
    30   18   19 1
    31   19   20 2
    32   19   21 2
    33   19   22 1
    34   22   26 1
    35   22   23 1
    36   23   24 1
    37   23   36 1
    38   23   37 1
    39   24   25 1
    40   24   38 1
    41   24   39 1
    42   25   26 1
    43   25   40 1
    44   25   41 1
    45   26   42 1
    46   26   43 1
@<TRIPOS>MOLECULE
ZINC45499543
   46    49     0     0     0
SMALL
USER_CHARGES

@<TRIPOS>ATOM
      1 C1         -0.0178    1.4608    0.0101 C.3       1 <0>         0.0628
      2 N1          0.0021   -0.0041    0.0020 N.pl3     1 <0>        -0.4603
      3 C2          0.0084   -0.8238   -1.0927 C.2       1 <0>         0.1818
      4 N2          0.0278   -2.0518   -0.6575 N.2       1 <0>        -0.2738
      5 N3          0.0341   -2.0645    0.6276 N.2       1 <0>        -0.2883
      6 C3          0.0241   -0.8342    1.0858 C.2       1 <0>         0.1571
      7 S1          0.0339   -0.3467    2.7790 S.3       1 <0>         0.0086
      8 C4          0.0644   -1.9165    3.6875 C.3       1 <0>        -0.0601
      9 C5          0.0751   -1.6394    5.1688 C.ar      1 <0>        -0.1255
     10 C6          1.2617   -1.4919    5.8280 C.ar      1 <0>        -0.0139
     11 C7          1.2259   -1.2341    7.2115 C.ar      1 <0>        -0.1043
     12 C8          2.4057   -1.0704    7.9551 C.ar      1 <0>        -0.0900
     13 C9          2.3297   -0.8219    9.2916 C.ar      1 <0>        -0.1101
     14 C10         1.0959   -0.7276    9.9322 C.ar      1 <0>        -0.0887
     15 C11        -0.0671   -0.8813    9.2424 C.ar      1 <0>        -0.0929
     16 C12        -0.0299   -1.1386    7.8608 C.ar      1 <0>         0.1475
     17 N4         -1.1561   -1.2926    7.1574 N.ar      1 <0>        -0.4605
     18 C13        -1.1272   -1.5278    5.8667 C.ar      1 <0>         0.2216
     19 Cl1        -2.6241   -1.7112    5.0069 Cl        1 <0>        -0.0131
     20 C14        -0.0050   -0.3876   -2.5351 C.3       1 <0>        -0.0171
     21 C15         1.4327   -0.2192   -3.0304 C.3       1 <0>        -0.0949
     22 H1          1.9935   -1.1366   -2.8515 H         1 <0>         0.1079
     23 C16         2.1028    0.9513   -2.2919 C.3       1 <0>        -0.1291
     24 C17         3.4254    1.3336   -2.9989 C.3       1 <0>        -0.5791
     25 S2          3.1083    0.8413   -4.7424 S.o2      1 <0>         2.3702
     26 O1          3.0122    2.0114   -5.5430 O.2       1 <0>        -0.9353
     27 O2          4.0236   -0.1825   -5.1074 O.2       1 <0>        -0.9314
     28 C18         1.4297    0.1065   -4.5513 C.3       1 <0>        -0.5729
     29 H2          1.0048    1.8381    0.0023 H         1 <0>         0.0896
     30 H3         -0.5450    1.8219   -0.8730 H         1 <0>         0.0982
     31 H4         -0.5280    1.8123    0.9069 H         1 <0>         0.0966
     32 H5         -0.8201   -2.5006    3.4335 H         1 <0>         0.1167
     33 H6          0.9596   -2.4760    3.4161 H         1 <0>         0.1155
     34 H7          2.2019   -1.5712    5.3025 H         1 <0>         0.1558
     35 H8          3.3679   -1.1416    7.4698 H         1 <0>         0.1367
     36 H9          3.2377   -0.6964    9.8628 H         1 <0>         0.1339
     37 H10         1.0619   -0.5297   10.9934 H         1 <0>         0.1364
     38 H11        -1.0150   -0.8056    9.7543 H         1 <0>         0.1415
     39 H12        -0.5111   -1.1416   -3.1380 H         1 <0>         0.1148
     40 H13        -0.5330    0.5620   -2.6226 H         1 <0>         0.0932
     41 H14         1.4316    1.8102   -2.2908 H         1 <0>         0.0887
     42 H15         2.3139    0.6572   -1.2638 H         1 <0>         0.0908
     43 H16         3.6062    2.4061   -2.9269 H         1 <0>         0.1433
     44 H17         4.2619    0.7709   -2.5845 H         1 <0>         0.1398
     45 H18         1.3260   -0.7996   -5.1483 H         1 <0>         0.1482
     46 H19         0.6523    0.8297   -4.7980 H         1 <0>         0.1441
@<TRIPOS>BOND
     1    1    2 1
     2    1   29 1
     3    1   30 1
     4    1   31 1
     5    2    6 1
     6    2    3 1
     7    3    4 2
     8    3   20 1
     9    4    5 1
    10    5    6 2
    11    6    7 1
    12    7    8 1
    13    8    9 1
    14    8   32 1
    15    8   33 1
    16    9   18 ar
    17    9   10 ar
    18   10   11 ar
    19   10   34 1
    20   11   16 ar
    21   11   12 ar
    22   12   13 ar
    23   12   35 1
    24   13   14 ar
    25   13   36 1
    26   14   15 ar
    27   14   37 1
    28   15   16 ar
    29   15   38 1
    30   16   17 ar
    31   17   18 ar
    32   18   19 1
    33   20   21 1
    34   20   39 1
    35   20   40 1
    36   21   22 1
    37   21   28 1
    38   21   23 1
    39   23   24 1
    40   23   41 1
    41   23   42 1
    42   24   25 1
    43   24   43 1
    44   24   44 1
    45   25   26 2
    46   25   27 2
    47   25   28 1
    48   28   45 1
    49   28   46 1
@<TRIPOS>MOLECULE
ZINC64566036
   48    51     0     0     0
SMALL
USER_CHARGES

@<TRIPOS>ATOM
      1 C1         -0.0178    1.4608    0.0101 C.3       1 <0>         0.0964
      2 N1          0.0021   -0.0041    0.0020 N.pl3     1 <0>        -0.3563
      3 C2          0.0079   -0.7894   -1.0889 C.2       1 <0>         0.0963
      4 C3          0.0325   -2.0799   -0.6681 C.2       1 <0>        -0.2358
      5 C4          0.0374   -2.0818    0.7239 C.2       1 <0>         0.0838
      6 N2          0.0246   -0.8359    1.1313 N.2       1 <0>        -0.2664
      7 C5          0.0597   -3.3023    1.6076 C.3       1 <0>         0.1404
      8 O1          1.4139   -3.6669    1.8822 O.3       1 <0>        -0.3034
      9 C6          1.6119   -4.7556    2.6719 C.ar      1 <0>         0.1237
     10 C7          0.5251   -5.4610    3.1669 C.ar      1 <0>        -0.1811
     11 C8          0.7278   -6.5671    3.9694 C.ar      1 <0>        -0.1108
     12 C9          2.0151   -6.9714    4.2798 C.ar      1 <0>         0.0601
     13 C10         3.1008   -6.2680    3.7867 C.ar      1 <0>        -0.1119
     14 C11         2.9011   -5.1654    2.9786 C.ar      1 <0>        -0.1207
     15 F1          2.2119   -8.0531    5.0650 F         1 <0>        -0.1403
     16 C12         0.0549   -3.2679   -1.6000 C.3       1 <0>         0.1977
     17 N3         -0.2317   -2.7651   -2.9557 N.pl3     1 <0>        -0.9938
     18 C13         0.4461   -1.5399   -3.4045 C.3       1 <0>         0.1240
     19 C14        -0.0132   -0.3628   -2.5350 C.3       1 <0>        -0.0778
     20 S1         -1.2916   -3.5605   -3.9489 S.o2      1 <0>         2.6943
     21 O2         -0.9436   -3.2070   -5.2805 O.2       1 <0>        -0.9429
     22 O3         -1.3304   -4.9096   -3.5042 O.2       1 <0>        -0.9353
     23 C15        -2.8916   -2.8856   -3.6505 C.ar      1 <0>        -0.7335
     24 C16        -3.5497   -2.1986   -4.6533 C.ar      1 <0>         0.0357
     25 C17        -4.8047   -1.6691   -4.4208 C.ar      1 <0>        -0.1832
     26 C18        -5.4045   -1.8260   -3.1824 C.ar      1 <0>         0.1884
     27 C19        -4.7466   -2.5137   -2.1776 C.ar      1 <0>        -0.2115
     28 C20        -3.4917   -3.0486   -2.4134 C.ar      1 <0>         0.2324
     29 F2         -2.8507   -3.7250   -1.4353 F         1 <0>        -0.1106
     30 F3         -6.6312   -1.3075   -2.9551 F         1 <0>        -0.1182
     31 H1          1.0048    1.8381    0.0023 H         1 <0>         0.0808
     32 H2         -0.5450    1.8219   -0.8730 H         1 <0>         0.0893
     33 H3         -0.5280    1.8123    0.9069 H         1 <0>         0.0935
     34 H4         -0.4543   -3.0827    2.5434 H         1 <0>         0.0822
     35 H5         -0.4430   -4.1265    1.1016 H         1 <0>         0.0879
     36 H6         -0.4792   -5.1454    2.9255 H         1 <0>         0.1389
     37 H7         -0.1183   -7.1165    4.3550 H         1 <0>         0.1393
     38 H8          4.1045   -6.5842    4.0299 H         1 <0>         0.1432
     39 H9          3.7483   -4.6197    2.5901 H         1 <0>         0.1417
     40 H10         1.0383   -3.7377   -1.5786 H         1 <0>         0.0916
     41 H11        -0.7077   -3.9876   -1.3022 H         1 <0>         0.1004
     42 H12         1.5247   -1.6644   -3.3087 H         1 <0>         0.0923
     43 H13         0.1923   -1.3440   -4.4463 H         1 <0>         0.1093
     44 H14        -1.0260   -0.0743   -2.8161 H         1 <0>         0.0897
     45 H15         0.6618    0.4812   -2.6767 H         1 <0>         0.0982
     46 H16        -3.0824   -2.0752   -5.6191 H         1 <0>         0.1661
     47 H17        -5.3180   -1.1325   -5.2051 H         1 <0>         0.1564
     48 H18        -5.2136   -2.6365   -1.2116 H         1 <0>         0.1593
@<TRIPOS>BOND
     1    1    2 1
     2    1   31 1
     3    1   32 1
     4    1   33 1
     5    2    6 1
     6    2    3 1
     7    3   19 1
     8    3    4 2
     9    4    5 1
    10    4   16 1
    11    5    6 2
    12    5    7 1
    13    7    8 1
    14    7   34 1
    15    7   35 1
    16    8    9 1
    17    9   14 ar
    18    9   10 ar
    19   10   11 ar
    20   10   36 1
    21   11   12 ar
    22   11   37 1
    23   12   13 ar
    24   12   15 1
    25   13   14 ar
    26   13   38 1
    27   14   39 1
    28   16   17 1
    29   16   40 1
    30   16   41 1
    31   17   18 1
    32   17   20 1
    33   18   19 1
    34   18   42 1
    35   18   43 1
    36   19   44 1
    37   19   45 1
    38   20   21 2
    39   20   22 2
    40   20   23 1
    41   23   28 ar
    42   23   24 ar
    43   24   25 ar
    44   24   46 1
    45   25   26 ar
    46   25   47 1
    47   26   27 ar
    48   26   30 1
    49   27   28 ar
    50   27   48 1
    51   28   29 1
@<TRIPOS>MOLECULE
ZINC20820417
   53    56     0     0     0
SMALL
USER_CHARGES
(5R)-5-[[[1-[4-(2-methylthiazol-4-yl)phenyl]-4-piperidyl]amino]methyl]pyrrolidin-2-one
@<TRIPOS>ATOM
      1 C1         11.5967   -9.2835    6.1051 C.3       1 <0>        -0.0738
      2 C2         10.8009   -9.2768    4.8253 C.2       1 <0>         0.1045
      3 N1         10.0907   -8.3054    4.3052 N.2       1 <0>        -0.5090
      4 C3          9.4396   -8.4605    3.1631 C.2       1 <0>         0.0965
      5 C4          9.5373   -9.6696    2.5290 C.2       1 <0>        -0.2115
      6 S1         10.5986  -10.5516    3.6641 S.3       1 <0>         0.0584
      7 C5          8.6342   -7.3564    2.5855 C.ar      1 <0>        -0.0321
      8 C6          8.5491   -6.1335    3.2490 C.ar      1 <0>        -0.0599
      9 C7          7.7996   -5.1088    2.7105 C.ar      1 <0>        -0.1348
     10 C8          7.1298   -5.2946    1.5070 C.ar      1 <0>         0.1007
     11 C9          7.2087   -6.5150    0.8466 C.ar      1 <0>        -0.1653
     12 C10         7.9612   -7.5407    1.3788 C.ar      1 <0>        -0.0778
     13 N2          6.3715   -4.2551    0.9631 N.pl3     1 <0>        -0.4872
     14 C11         5.7521   -4.6628   -0.3044 C.3       1 <0>         0.0486
     15 C12         5.0524   -3.4603   -0.9418 C.3       1 <0>        -0.1391
     16 C13         3.9871   -2.9269    0.0201 C.3       1 <0>         0.0339
     17 C14         4.6494   -2.5552    1.3496 C.3       1 <0>        -0.1390
     18 C15         5.3622   -3.7836    1.9199 C.3       1 <0>         0.0555
     19 N3          3.3520   -1.7369   -0.5617 N.4       1 <0>        -0.5407
     20 C16         2.0008   -1.5428   -0.0189 C.3       1 <0>        -0.0205
     21 C17         1.3730   -0.2969   -0.6470 C.3       1 <0>         0.1045
     22 H1          1.3153   -0.4558   -1.7339 H         1 <0>         0.1037
     23 C18         0.0021   -0.0041    0.0020 C.3       1 <0>        -0.1235
     24 C19        -0.0189    1.5420    0.0105 C.3       1 <0>        -0.1556
     25 C20         1.4425    1.9330   -0.0013 C.2       1 <0>         0.5345
     26 O1          1.8695    3.0332    0.2782 O.2       1 <0>        -0.5007
     27 N4          2.1987    0.8837   -0.3675 N.am      1 <0>        -0.7572
     28 H2         11.5054   -8.3047    6.5987 H         1 <0>         0.0977
     29 H3         12.6545   -9.4825    5.8781 H         1 <0>         0.0947
     30 H4         11.2110  -10.0682    6.7726 H         1 <0>         0.0945
     31 H5          9.0958   -9.9989    1.6000 H         1 <0>         0.1974
     32 H6          9.0694   -5.9887    4.1842 H         1 <0>         0.1383
     33 H7          7.7333   -4.1611    3.2242 H         1 <0>         0.1283
     34 H8          6.6835   -6.6588   -0.0861 H         1 <0>         0.1297
     35 H9          8.0256   -8.4875    0.8633 H         1 <0>         0.1286
     36 H10         6.5280   -5.0393   -0.9872 H         1 <0>         0.1064
     37 H11         5.0149   -5.4567   -0.1136 H         1 <0>         0.0587
     38 H12         5.7918   -2.6720   -1.1465 H         1 <0>         0.1002
     39 H13         4.5763   -3.7700   -1.8838 H         1 <0>         0.0986
     40 H14         3.1941   -3.6733    0.1756 H         1 <0>         0.1351
     41 H15         5.3798   -1.7498    1.1828 H         1 <0>         0.0997
     42 H16         3.8814   -2.2126    2.0587 H         1 <0>         0.0950
     43 H17         4.6272   -4.5818    2.1007 H         1 <0>         0.0565
     44 H18         5.8523   -3.5150    2.8673 H         1 <0>         0.1049
     45 H19         3.9566   -0.8479   -0.3291 H         1 <0>         0.4400
     46 H20         1.3823   -2.4221   -0.2518 H         1 <0>         0.1447
     47 H21         2.0589   -1.4139    1.0720 H         1 <0>         0.1349
     48 H22        -0.7964   -0.4445   -0.6132 H         1 <0>         0.1058
     49 H23        -0.0275   -0.4430    1.0102 H         1 <0>         0.0935
     50 H24        -0.5509    1.9064   -0.8807 H         1 <0>         0.1186
     51 H25        -0.5338    1.8968    0.9155 H         1 <0>         0.1172
     52 H26         3.2924    0.8269   -0.4705 H         1 <0>         0.4168
     53 H27         3.2800   -1.8561   -1.6528 H         1 <0>         0.4510
@<TRIPOS>BOND
     1    1    2 1
     2    1   28 1
     3    1   29 1
     4    1   30 1
     5    2    6 1
     6    2    3 2
     7    3    4 1
     8    4    5 2
     9    4    7 1
    10    5    6 1
    11    5   31 1
    12    7   12 ar
    13    7    8 ar
    14    8    9 ar
    15    8   32 1
    16    9   10 ar
    17    9   33 1
    18   10   11 ar
    19   10   13 1
    20   11   12 ar
    21   11   34 1
    22   12   35 1
    23   13   18 1
    24   13   14 1
    25   14   15 1
    26   14   36 1
    27   14   37 1
    28   15   16 1
    29   15   38 1
    30   15   39 1
    31   16   17 1
    32   16   19 1
    33   16   40 1
    34   17   18 1
    35   17   41 1
    36   17   42 1
    37   18   43 1
    38   18   44 1
    39   19   20 1
    40   19   45 1
    41   19   53 1
    42   20   21 1
    43   20   46 1
    44   20   47 1
    45   21   22 1
    46   21   27 1
    47   21   23 1
    48   23   24 1
    49   23   48 1
    50   23   49 1
    51   24   25 1
    52   24   50 1
    53   24   51 1
    54   25   26 2
    55   25   27 am
    56   27   52 1
@<TRIPOS>MOLECULE
ZINC39629740
   60    63     0     0     0
SMALL
USER_CHARGES

@<TRIPOS>ATOM
      1 C1          7.0538    3.3593   -1.9021 C.ar      1 <0>        -0.1055
      2 C2          7.7099    2.1556   -2.0802 C.ar      1 <0>        -0.1213
      3 C3          7.1425    0.9838   -1.6157 C.ar      1 <0>        -0.1047
      4 C4          5.9192    1.0157   -0.9727 C.ar      1 <0>        -0.1183
      5 C5          5.2635    2.2194   -0.7939 C.ar      1 <0>        -0.0987
      6 C6          5.8302    3.3911   -1.2596 C.ar      1 <0>        -0.1166
      7 C7          5.3001   -0.2619   -0.4672 C.3       1 <0>         0.1613
      8 N1          5.7407   -0.5072    0.9083 N.am      1 <0>        -0.7246
      9 C8          5.3108   -1.6005    1.5688 C.2       1 <0>         0.5150
     10 O1          4.5590   -2.3812    1.0245 O.2       1 <0>        -0.5169
     11 C9          5.7640   -1.8528    2.9837 C.3       1 <0>        -0.1160
     12 H1          5.9644   -0.9092    3.4912 H         1 <0>         0.1172
     13 C10         4.6969   -2.6621    3.7543 C.3       1 <0>         0.1138
     14 N2          5.1332   -4.0726    3.6279 N.am      1 <0>        -0.6181
     15 C11         6.6086   -4.0155    3.7614 C.3       1 <0>         0.1059
     16 C12         7.0181   -2.7429    2.9936 C.3       1 <0>        -0.0725
     17 C13         7.4258   -3.0972    1.5667 C.3       1 <0>        -0.1462
     18 C14         8.7070   -3.9352    1.6003 C.3       1 <0>        -0.0090
     19 N3          9.7743   -3.1742    2.2610 N.4       1 <0>        -0.5044
     20 C15         9.4139   -2.9174    3.6605 C.3       1 <0>        -0.0099
     21 C16         8.1624   -2.0366    3.7141 C.3       1 <0>        -0.1339
     22 C17         4.3628   -5.1615    3.4351 C.2       1 <0>         0.5528
     23 O2          4.8732   -6.2585    3.3520 O.2       1 <0>        -0.5307
     24 C18         2.8670   -5.0159    3.3228 C.3       1 <0>        -0.1030
     25 H2          2.6241   -4.3711    2.4783 H         1 <0>         0.1057
     26 C19         2.2286   -6.3956    3.1184 C.3       1 <0>        -0.0994
     27 C20         0.7383   -6.2014    2.8303 C.3       1 <0>        -0.0963
     28 C21         0.1292   -5.2864    3.8519 C.2       1 <0>        -0.1449
     29 C22         0.8129   -4.5047    4.6247 C.2       1 <0>        -0.1652
     30 C23         2.3113   -4.4067    4.6118 C.3       1 <0>        -0.0801
     31 H3          7.4992    4.2753   -2.2611 H         1 <0>         0.1274
     32 H4          8.6656    2.1307   -2.5825 H         1 <0>         0.1256
     33 H5          7.6547    0.0434   -1.7554 H         1 <0>         0.1191
     34 H6          4.3076    2.2443   -0.2918 H         1 <0>         0.1253
     35 H7          5.3178    4.3315   -1.1202 H         1 <0>         0.1284
     36 H8          4.2140   -0.1734   -0.4904 H         1 <0>         0.0811
     37 H9          5.6107   -1.0920   -1.1017 H         1 <0>         0.0779
     38 H10         6.3420    0.1173    1.3436 H         1 <0>         0.4007
     39 H11         4.6766   -2.3630    4.8022 H         1 <0>         0.0903
     40 H12         3.7154   -2.5258    3.3002 H         1 <0>         0.1007
     41 H13         6.8928   -3.9336    4.8106 H         1 <0>         0.0837
     42 H14         7.0659   -4.8961    3.3102 H         1 <0>         0.0872
     43 H15         6.6289   -3.6697    1.0920 H         1 <0>         0.1229
     44 H16         7.6040   -2.1825    1.0014 H         1 <0>         0.0950
     45 H17         8.5235   -4.8572    2.1519 H         1 <0>         0.1345
     46 H18         9.0101   -4.1762    0.5814 H         1 <0>         0.1380
     47 H19        10.6329   -3.7033    2.2278 H         1 <0>         0.4342
     48 H20         9.2139   -3.8635    4.1634 H         1 <0>         0.1330
     49 H21        10.2380   -2.4080    4.1601 H         1 <0>         0.1400
     50 H22         8.3668   -1.0838    3.2259 H         1 <0>         0.0971
     51 H23         7.8849   -1.8615    4.7535 H         1 <0>         0.1220
     52 H24         2.7026   -6.8974    2.2748 H         1 <0>         0.0751
     53 H25         2.3523   -6.9940    4.0211 H         1 <0>         0.0716
     54 H26         0.6158   -5.7675    1.8379 H         1 <0>         0.0773
     55 H27         0.2348   -7.1675    2.8646 H         1 <0>         0.0804
     56 H28        -0.9464   -5.2793    3.9481 H         1 <0>         0.1082
     57 H29         0.2717   -3.8807    5.3204 H         1 <0>         0.1091
     58 H30         2.7133   -4.9465    5.4692 H         1 <0>         0.0764
     59 H31         2.6090   -3.3600    4.6744 H         1 <0>         0.0751
     60 H32         9.9051   -2.2957    1.7821 H         1 <0>         0.4273
@<TRIPOS>BOND
     1    1    6 ar
     2    1    2 ar
     3    1   31 1
     4    2    3 ar
     5    2   32 1
     6    3    4 ar
     7    3   33 1
     8    4    5 ar
     9    4    7 1
    10    5    6 ar
    11    5   34 1
    12    6   35 1
    13    7    8 1
    14    7   36 1
    15    7   37 1
    16    8    9 am
    17    8   38 1
    18    9   10 2
    19    9   11 1
    20   11   12 1
    21   11   16 1
    22   11   13 1
    23   13   14 1
    24   13   39 1
    25   13   40 1
    26   14   15 1
    27   14   22 am
    28   15   16 1
    29   15   41 1
    30   15   42 1
    31   16   21 1
    32   16   17 1
    33   17   18 1
    34   17   43 1
    35   17   44 1
    36   18   19 1
    37   18   45 1
    38   18   46 1
    39   19   20 1
    40   19   47 1
    41   19   60 1
    42   20   21 1
    43   20   48 1
    44   20   49 1
    45   21   50 1
    46   21   51 1
    47   22   23 2
    48   22   24 1
    49   24   25 1
    50   24   30 1
    51   24   26 1
    52   26   27 1
    53   26   52 1
    54   26   53 1
    55   27   28 1
    56   27   54 1
    57   27   55 1
    58   28   29 2
    59   28   56 1
    60   29   30 1
    61   29   57 1
    62   30   58 1
    63   30   59 1
@<TRIPOS>MOLECULE
ZINC44168201
   56    59     0     0     0
SMALL
USER_CHARGES

@<TRIPOS>ATOM
      1 C1         -0.0167    1.3786    0.0096 C.ar      1 <0>        -0.0254
      2 C2          1.1689    2.0869    0.0021 C.ar      1 <0>        -0.1908
      3 C3          2.3811    1.4088   -0.0131 C.ar      1 <0>         0.2717
      4 C4          2.3964    0.0198   -0.0206 C.ar      1 <0>        -0.1878
      5 C5          1.2071   -0.6823   -0.0130 C.ar      1 <0>        -0.0606
      6 C6          0.0021   -0.0041    0.0020 C.ar      1 <0>        -0.2226
      7 C7         -1.2936   -0.7736    0.0107 C.3       1 <0>         0.0956
      8 H1         -2.0948   -0.1298    0.3737 H         1 <0>         0.1546
      9 C8         -1.6196   -1.2386   -1.4135 C.3       1 <0>        -0.1181
     10 S1         -3.2204   -2.1041   -1.3787 S.3       1 <0>        -0.1724
     11 C9         -3.0078   -3.2796   -0.0053 C.3       1 <0>        -0.1236
     12 C10        -2.4742   -2.5092    1.2083 C.3       1 <0>         0.0050
     13 H2         -3.1697   -1.7099    1.4642 H         1 <0>         0.1776
     14 N1         -1.1642   -1.9343    0.8939 N.4       1 <0>        -0.4948
     15 C11        -2.3393   -3.4493    2.3784 C.2       1 <0>         0.5070
     16 O1         -1.2554   -3.6247    2.8935 O.2       1 <0>        -0.5235
     17 N2         -3.4231   -4.0952    2.8523 N.am      1 <0>        -0.6910
     18 C12        -3.2920   -5.0091    3.9898 C.3       1 <0>         0.1050
     19 C13        -4.6603   -5.6059    4.3249 C.3       1 <0>         0.0652
     20 H3         -5.3838   -4.8061    4.4831 H         1 <0>         0.0926
     21 C14        -4.5552   -6.4758    5.5960 C.3       1 <0>        -0.1488
     22 C15        -5.4796   -7.6754    5.2518 C.3       1 <0>        -0.1572
     23 C16        -5.2406   -7.8026    3.7261 C.3       1 <0>         0.0488
     24 O2         -5.0970   -6.4515    3.2544 O.3       1 <0>        -0.3797
     25 N3          3.5820    2.1220   -0.0212 N.pl3     1 <0>        -0.6224
     26 C17         3.7089    3.5867   -0.0086 C.3       1 <0>         0.1050
     27 C18         5.2159    3.9165   -0.0506 C.3       1 <0>        -0.1343
     28 C19         5.8366    2.6294   -0.6552 C.3       1 <0>        -0.1351
     29 C20         4.9324    1.5307   -0.0372 C.3       1 <0>         0.1036
     30 H4         -0.9595    1.9052    0.0260 H         1 <0>         0.1338
     31 H5          1.1535    3.1668    0.0077 H         1 <0>         0.1329
     32 H6          3.3371   -0.5105   -0.0328 H         1 <0>         0.1317
     33 H7          1.2182   -1.7622   -0.0189 H         1 <0>         0.1170
     34 H8         -1.6827   -0.3757   -2.0765 H         1 <0>         0.1577
     35 H9         -0.8425   -1.9171   -1.7655 H         1 <0>         0.1133
     36 H10        -3.9673   -3.7344    0.2410 H         1 <0>         0.1576
     37 H11        -2.2959   -4.0539   -0.2911 H         1 <0>         0.1192
     38 H12        -0.5953   -2.6332    0.4402 H         1 <0>         0.4265
     39 H13        -4.2900   -3.9549    2.4403 H         1 <0>         0.4142
     40 H14        -2.5988   -5.8105    3.7340 H         1 <0>         0.0857
     41 H15        -2.9127   -4.4625    4.8532 H         1 <0>         0.0918
     42 H16        -3.5296   -6.8093    5.7541 H         1 <0>         0.0840
     43 H17        -4.9275   -5.9366    6.4670 H         1 <0>         0.0915
     44 H18        -5.1637   -8.5777    5.7754 H         1 <0>         0.0907
     45 H19        -6.5222   -7.4426    5.4680 H         1 <0>         0.0839
     46 H20        -4.3308   -8.3706    3.5318 H         1 <0>         0.0647
     47 H21        -6.0955   -8.2806    3.2478 H         1 <0>         0.0925
     48 H22         3.2125    4.0092   -0.8822 H         1 <0>         0.0694
     49 H23         3.2665    3.9893    0.9026 H         1 <0>         0.0691
     50 H24         5.4050    4.7752   -0.6947 H         1 <0>         0.0886
     51 H25         5.5997    4.0946    0.9539 H         1 <0>         0.0808
     52 H26         5.7636    2.6341   -1.7427 H         1 <0>         0.0797
     53 H27         6.8713    2.5071   -0.3351 H         1 <0>         0.0904
     54 H28         5.2559    1.2960    0.9769 H         1 <0>         0.0712
     55 H29         4.9469    0.6347   -0.6579 H         1 <0>         0.0760
     56 H30        -0.7149   -1.6491    1.7511 H         1 <0>         0.4426
@<TRIPOS>BOND
     1    1    6 ar
     2    1    2 ar
     3    1   30 1
     4    2    3 ar
     5    2   31 1
     6    3    4 ar
     7    3   25 1
     8    4    5 ar
     9    4   32 1
    10    5    6 ar
    11    5   33 1
    12    6    7 1
    13    7    8 1
    14    7   14 1
    15    7    9 1
    16    9   10 1
    17    9   34 1
    18    9   35 1
    19   10   11 1
    20   11   12 1
    21   11   36 1
    22   11   37 1
    23   12   13 1
    24   12   14 1
    25   12   15 1
    26   14   38 1
    27   14   56 1
    28   15   16 2
    29   15   17 am
    30   17   18 1
    31   17   39 1
    32   18   19 1
    33   18   40 1
    34   18   41 1
    35   19   20 1
    36   19   24 1
    37   19   21 1
    38   21   22 1
    39   21   42 1
    40   21   43 1
    41   22   23 1
    42   22   44 1
    43   22   45 1
    44   23   24 1
    45   23   46 1
    46   23   47 1
    47   25   29 1
    48   25   26 1
    49   26   27 1
    50   26   48 1
    51   26   49 1
    52   27   28 1
    53   27   50 1
    54   27   51 1
    55   28   29 1
    56   28   52 1
    57   28   53 1
    58   29   54 1
    59   29   55 1
@<TRIPOS>MOLECULE
ZINC61699512
   37    38     0     0     0
SMALL
USER_CHARGES

@<TRIPOS>ATOM
      1 C1         -4.8061   -3.0188    2.7651 C.3       1 <0>        -0.1266
      2 C2         -3.5177   -3.4307    2.1007 C.ar      1 <0>         0.0079
      3 C3         -3.5387   -4.3311    1.0512 C.ar      1 <0>        -0.1435
      4 C4         -2.3586   -4.7107    0.4392 C.ar      1 <0>        -0.0126
      5 C5         -1.1549   -4.1912    0.8749 C.ar      1 <0>        -0.0759
      6 C6         -1.1310   -3.2878    1.9275 C.ar      1 <0>         0.1892
      7 C7         -2.3176   -2.9043    2.5367 C.ar      1 <0>        -0.2055
      8 O1          0.0516   -2.7756    2.3583 O.3       1 <0>        -0.2196
      9 C8          0.0384   -1.9769    3.4577 C.ar      1 <0>         0.1321
     10 C9         -0.0458   -0.5994    3.3151 C.ar      1 <0>        -0.1003
     11 C10        -0.0590    0.2103    4.4342 C.ar      1 <0>        -0.0571
     12 C11         0.0116   -0.3506    5.6962 C.ar      1 <0>        -0.1383
     13 C12         0.0961   -1.7228    5.8419 C.ar      1 <0>        -0.0836
     14 C13         0.1034   -2.5382    4.7257 C.ar      1 <0>        -0.0973
     15 Br1         0.2098   -4.4155    4.9256 Br        1 <0>         0.0050
     16 C14        -0.0031    0.5357    6.9150 C.3       1 <0>         0.0855
     17 H1         -0.4196    1.5080    6.6522 H         1 <0>         0.1560
     18 C15         1.4257    0.7158    7.4318 C.3       1 <0>        -0.1838
     19 N1         -0.8277   -0.0838    7.9610 N.4       1 <0>        -0.6385
     20 N2          0.1083   -4.5984    0.2195 N.pl3     1 <0>         0.0364
     21 O2          0.0869   -5.3860   -0.6975 O.2       1 <0>        -0.1604
     22 O3          1.1614   -4.1435    0.6012 O.3       1 <0>        -0.1350
     23 H2         -5.2137   -2.1449    2.2570 H         1 <0>         0.0895
     24 H3         -5.5222   -3.8387    2.7089 H         1 <0>         0.0851
     25 H4         -4.6143   -2.7750    3.8100 H         1 <0>         0.0732
     26 H5         -4.4786   -4.7387    0.7093 H         1 <0>         0.1555
     27 H6         -2.3777   -5.4143   -0.3800 H         1 <0>         0.1677
     28 H7         -2.3022   -2.1978    3.3534 H         1 <0>         0.1424
     29 H8         -0.1007   -0.1605    2.3298 H         1 <0>         0.1584
     30 H9         -0.1242    1.2826    4.3233 H         1 <0>         0.1543
     31 H10         0.1515   -2.1582    6.8287 H         1 <0>         0.1402
     32 H11         2.0376    1.1754    6.6557 H         1 <0>         0.1113
     33 H12         1.4151    1.3568    8.3133 H         1 <0>         0.0912
     34 H13         1.8423   -0.2566    7.6946 H         1 <0>         0.0850
     35 H14        -1.7699   -0.2026    7.6202 H         1 <0>         0.4386
     36 H15        -0.4421   -0.9839    8.2043 H         1 <0>         0.4318
     37 H16        -0.8375    0.5096    8.7770 H         1 <0>         0.4419
@<TRIPOS>BOND
     1    1    2 1
     2    1   23 1
     3    1   24 1
     4    1   25 1
     5    2    7 ar
     6    2    3 ar
     7    3    4 ar
     8    3   26 1
     9    4    5 ar
    10    4   27 1
    11    5    6 ar
    12    5   20 1
    13    6    7 ar
    14    6    8 1
    15    7   28 1
    16    8    9 1
    17    9   14 ar
    18    9   10 ar
    19   10   11 ar
    20   10   29 1
    21   11   12 ar
    22   11   30 1
    23   12   13 ar
    24   12   16 1
    25   13   14 ar
    26   13   31 1
    27   14   15 1
    28   16   17 1
    29   16   18 1
    30   16   19 1
    31   18   32 1
    32   18   33 1
    33   18   34 1
    34   19   35 1
    35   19   36 1
    36   19   37 1
    37   20   21 2
    38   20   22 1
@<TRIPOS>MOLECULE
ZINC67418761
   54    56     0     0     0
SMALL
USER_CHARGES

@<TRIPOS>ATOM
      1 C1          0.2534    1.5375   -0.0291 C.3       1 <0>        -0.1842
      2 C2          0.0439    0.0227    0.0179 C.3       1 <0>         0.0068
      3 H1          0.4231   -0.3674    0.9624 H         1 <0>         0.1635
      4 C3         -1.4267   -0.2850   -0.0985 C.2       1 <0>         0.5042
      5 O1         -1.8696   -0.7492   -1.1278 O.2       1 <0>        -0.5064
      6 N1         -2.2499   -0.0442    0.9412 N.am      1 <0>        -0.6366
      7 C4         -3.5902   -0.4292    0.8741 C.ar      1 <0>         0.1163
      8 C5         -4.2661   -0.3884   -0.3263 C.ar      1 <0>        -0.1010
      9 C6         -5.6021   -0.7700   -0.4041 C.ar      1 <0>        -0.1083
     10 C7         -6.2775   -1.1937    0.6997 C.ar      1 <0>        -0.0948
     11 C8         -5.6248   -1.2506    1.9427 C.ar      1 <0>        -0.0416
     12 C9         -4.2633   -0.8693    2.0335 C.ar      1 <0>        -0.0521
     13 C10        -3.6114   -0.9308    3.2752 C.ar      1 <0>        -0.1256
     14 C11        -4.2923   -1.3600    4.3733 C.ar      1 <0>        -0.0971
     15 C12        -5.6299   -1.7407    4.2841 C.ar      1 <0>        -0.1134
     16 C13        -6.2969   -1.6834    3.0991 C.ar      1 <0>        -0.0943
     17 N2          0.7654   -0.6062   -1.0965 N.4       1 <0>        -0.3668
     18 C14         0.6653   -2.0660   -0.9806 C.3       1 <0>        -0.0154
     19 C15         1.3458   -2.7248   -2.1824 C.3       1 <0>        -0.1400
     20 C16         2.8206   -2.3138   -2.2156 C.3       1 <0>        -0.1353
     21 C17         2.9136   -0.7859   -2.2615 C.3       1 <0>        -0.1205
     22 H2          2.4571   -0.4210   -3.1816 H         1 <0>         0.1039
     23 C18         2.1750   -0.1990   -1.0568 C.3       1 <0>        -0.0074
     24 C19         4.3831   -0.3620   -2.2173 C.3       1 <0>         0.1265
     25 N3          5.0624   -0.8278   -3.4288 N.am      1 <0>        -0.7377
     26 C20         6.3725   -0.5678   -3.6090 C.2       1 <0>         0.5147
     27 O2          6.9891    0.0518   -2.7682 O.2       1 <0>        -0.5355
     28 C21         7.0713   -1.0470   -4.8552 C.3       1 <0>        -0.1758
     29 H3          1.3171    1.7600    0.0550 H         1 <0>         0.1029
     30 H4         -0.1258    1.9276   -0.9737 H         1 <0>         0.0923
     31 H5         -0.2820    2.0042    0.7978 H         1 <0>         0.1123
     32 H6         -1.9111    0.3965    1.7361 H         1 <0>         0.4183
     33 H7         -3.7532   -0.0560   -1.2167 H         1 <0>         0.1407
     34 H8         -6.1117   -0.7291   -1.3554 H         1 <0>         0.1332
     35 H9         -7.3143   -1.4856    0.6199 H         1 <0>         0.1356
     36 H10        -2.5748   -0.6396    3.3589 H         1 <0>         0.1186
     37 H11        -3.7884   -1.4064    5.3274 H         1 <0>         0.1287
     38 H12        -6.1472   -2.0781    5.1700 H         1 <0>         0.1309
     39 H13        -7.3337   -1.9808    3.0449 H         1 <0>         0.1357
     40 H14         1.1550   -2.3916   -0.0628 H         1 <0>         0.1286
     41 H15        -0.3849   -2.3568   -0.9538 H         1 <0>         0.1373
     42 H16         1.2719   -3.8087   -2.0935 H         1 <0>         0.1159
     43 H17         0.8567   -2.4001   -3.1008 H         1 <0>         0.0910
     44 H18         3.3221   -2.6828   -1.3209 H         1 <0>         0.0873
     45 H19         3.2965   -2.7347   -3.1013 H         1 <0>         0.0957
     46 H20         2.2395    0.8887   -1.0863 H         1 <0>         0.1406
     47 H21         2.6325   -0.5643   -0.1374 H         1 <0>         0.1371
     48 H22         4.4461    0.7247   -2.1604 H         1 <0>         0.0786
     49 H23         4.8614   -0.8000   -1.3413 H         1 <0>         0.0794
     50 H24         4.5693   -1.3233   -4.1012 H         1 <0>         0.4035
     51 H25         7.0001   -0.2822   -5.6286 H         1 <0>         0.0988
     52 H26         8.1204   -1.2411   -4.6317 H         1 <0>         0.0993
     53 H27         6.5990   -1.9643   -5.2067 H         1 <0>         0.0819
     54 H28         0.3557   -0.3114   -1.9702 H         1 <0>         0.4297
@<TRIPOS>BOND
     1    1    2 1
     2    1   29 1
     3    1   30 1
     4    1   31 1
     5    2    3 1
     6    2    4 1
     7    2   17 1
     8    4    5 2
     9    4    6 am
    10    6    7 1
    11    6   32 1
    12    7   12 ar
    13    7    8 ar
    14    8    9 ar
    15    8   33 1
    16    9   10 ar
    17    9   34 1
    18   10   11 ar
    19   10   35 1
    20   11   16 ar
    21   11   12 ar
    22   12   13 ar
    23   13   14 ar
    24   13   36 1
    25   14   15 ar
    26   14   37 1
    27   15   16 ar
    28   15   38 1
    29   16   39 1
    30   17   23 1
    31   17   18 1
    32   17   54 1
    33   18   19 1
    34   18   40 1
    35   18   41 1
    36   19   20 1
    37   19   42 1
    38   19   43 1
    39   20   21 1
    40   20   44 1
    41   20   45 1
    42   21   22 1
    43   21   23 1
    44   21   24 1
    45   23   46 1
    46   23   47 1
    47   24   25 1
    48   24   48 1
    49   24   49 1
    50   25   26 am
    51   25   50 1
    52   26   27 2
    53   26   28 1
    54   28   51 1
    55   28   52 1
    56   28   53 1
@<TRIPOS>MOLECULE
ZINC12386377
   57    60     0     0     0
SMALL
USER_CHARGES
(3-isopropoxyphenyl)-[(3S)-1-[(1-thiazol-2-ylpyrrol-2-yl)methyl]-3-piperidyl]methanone
@<TRIPOS>ATOM
      1 C1         10.6893   -4.3119   -5.7637 C.3       1 <0>        -0.1520
      2 C2          9.2185   -4.1617   -6.1577 C.3       1 <0>         0.0762
      3 C3          8.9232   -5.0444   -7.3720 C.3       1 <0>        -0.1837
      4 O1          8.3894   -4.5621   -5.0649 O.3       1 <0>        -0.3053
      5 C4          7.1385   -4.0332   -5.0134 C.ar      1 <0>         0.1314
      6 C5          6.6785   -3.2366   -6.0541 C.ar      1 <0>        -0.1707
      7 C6          5.4069   -2.6951   -6.0086 C.ar      1 <0>        -0.0865
      8 C7          4.5851   -2.9420   -4.9287 C.ar      1 <0>        -0.1176
      9 C8          5.0382   -3.7425   -3.8755 C.ar      1 <0>        -0.1410
     10 C9          6.3261   -4.2844   -3.9216 C.ar      1 <0>        -0.0903
     11 C10         4.1653   -4.0085   -2.7207 C.2       1 <0>         0.4132
     12 O2          4.5608   -4.7030   -1.8090 O.2       1 <0>        -0.4282
     13 C11         2.7798   -3.4176   -2.6716 C.3       1 <0>        -0.1436
     14 H1          2.7695   -2.5503   -3.1693 H         1 <0>         0.1070
     15 C12         1.7860   -4.3885   -3.3152 C.3       1 <0>        -0.1286
     16 C13         0.3737   -3.8068   -3.2074 C.3       1 <0>        -0.1419
     17 C14         0.0423   -3.5540   -1.7349 C.3       1 <0>        -0.0106
     18 C15         2.3787   -3.1761   -1.2146 C.3       1 <0>         0.0019
     19 C16         0.6548   -2.2454    0.2075 C.3       1 <0>         0.0738
     20 C17        -0.6309   -1.4596    0.1882 C.2       1 <0>        -0.0824
     21 C18        -1.8678   -1.9624    0.3761 C.2       1 <0>        -0.0969
     22 C19        -2.7801   -0.8926    0.2727 C.2       1 <0>        -0.1843
     23 C20        -2.0674    0.2259    0.0305 C.2       1 <0>         0.0668
     24 N1         -0.7445   -0.1137   -0.0198 N.pl3     1 <0>        -0.3528
     25 C21         0.3122    0.7652   -0.2509 C.2       1 <0>         0.2649
     26 N2          0.2764    2.0657   -0.4633 N.2       1 <0>        -0.4991
     27 C22         1.3807    2.7559   -0.6665 C.2       1 <0>         0.0570
     28 C23         2.5660    2.0971   -0.6529 C.2       1 <0>        -0.1761
     29 S1          2.0138    0.4282   -0.3321 S.3       1 <0>         0.0305
     30 H2         10.8942   -5.3530   -5.5146 H         1 <0>         0.0707
     31 H3         11.3217   -4.0065   -6.5973 H         1 <0>         0.0824
     32 H4         10.8997   -3.6830   -4.8987 H         1 <0>         0.0668
     33 H5          9.0136   -3.1206   -6.4069 H         1 <0>         0.0753
     34 H6          9.1281   -6.0856   -7.1228 H         1 <0>         0.0718
     35 H7          7.8754   -4.9375   -7.6527 H         1 <0>         0.0614
     36 H8          9.5556   -4.7391   -8.2056 H         1 <0>         0.0782
     37 H9          7.3167   -3.0396   -6.9028 H         1 <0>         0.1403
     38 H10         5.0559   -2.0770   -6.8217 H         1 <0>         0.1365
     39 H11         3.5924   -2.5176   -4.8968 H         1 <0>         0.1293
     40 H12         6.6844   -4.9000   -3.1097 H         1 <0>         0.1448
     41 H13         2.0426   -4.5296   -4.3651 H         1 <0>         0.1046
     42 H14         1.8257   -5.3468   -2.7975 H         1 <0>         0.0942
     43 H15         0.3240   -2.8674   -3.7581 H         1 <0>         0.0884
     44 H16        -0.3436   -4.5129   -3.6258 H         1 <0>         0.1224
     45 H17         0.0787   -4.4960   -1.1876 H         1 <0>         0.1389
     46 H18        -0.9572   -3.1265   -1.6557 H         1 <0>         0.1356
     47 H19         3.0761   -2.4742   -0.7575 H         1 <0>         0.1312
     48 H20         2.4041   -4.1199   -0.6699 H         1 <0>         0.1508
     49 H21         1.4470   -1.6355    0.6416 H         1 <0>         0.1299
     50 H22         0.5209   -3.1466    0.8059 H         1 <0>         0.1658
     51 H23        -2.1147   -2.9962    0.5672 H         1 <0>         0.1653
     52 H24        -3.8538   -0.9573    0.3698 H         1 <0>         0.1659
     53 H25        -2.4719    1.2185   -0.1014 H         1 <0>         0.1872
     54 H26         1.3426    3.8211   -0.8402 H         1 <0>         0.1932
     55 H27         3.5670    2.4764   -0.7957 H         1 <0>         0.2166
     56 N3          1.0202   -2.5936   -1.1811 N.4       1 <0>        -0.3968
     57 H28         1.0094   -1.7406   -1.7525 H         1 <0>         0.4183
@<TRIPOS>BOND
     1    1    2 1
     2    1   30 1
     3    1   31 1
     4    1   32 1
     5    2    3 1
     6    2    4 1
     7    2   33 1
     8    3   34 1
     9    3   35 1
    10    3   36 1
    11    4    5 1
    12    5   10 ar
    13    5    6 ar
    14    6    7 ar
    15    6   37 1
    16    7    8 ar
    17    7   38 1
    18    8    9 ar
    19    8   39 1
    20    9   10 ar
    21    9   11 1
    22   10   40 1
    23   11   12 2
    24   11   13 1
    25   13   14 1
    26   13   18 1
    27   13   15 1
    28   15   16 1
    29   15   41 1
    30   15   42 1
    31   16   17 1
    32   16   43 1
    33   16   44 1
    34   17   45 1
    35   17   46 1
    36   17   56 1
    37   18   47 1
    38   18   48 1
    39   18   56 1
    40   19   20 1
    41   19   49 1
    42   19   50 1
    43   19   56 1
    44   20   24 1
    45   20   21 2
    46   21   22 1
    47   21   51 1
    48   22   23 2
    49   22   52 1
    50   23   24 1
    51   23   53 1
    52   24   25 1
    53   25   29 1
    54   25   26 2
    55   26   27 1
    56   27   28 2
    57   27   54 1
    58   28   29 1
    59   28   55 1
    60   56   57 1
@<TRIPOS>MOLECULE
ZINC19888726
   66    69     0     0     0
SMALL
USER_CHARGES
1-[1-[(4-ethoxyphenyl)methyl]-4-piperidyl]-4-(2-methoxyphenyl)piperazine
@<TRIPOS>ATOM
      1 C1         -2.4901    7.3041   -8.6742 C.3       1 <0>        -0.1592
      2 C2         -1.5420    6.9024   -7.5426 C.3       1 <0>         0.0498
      3 O1         -2.2655    6.8488   -6.3114 O.3       1 <0>        -0.3066
      4 C3         -1.5653    6.5045   -5.1988 C.ar      1 <0>         0.1710
      5 C4         -2.2048    6.4329   -3.9697 C.ar      1 <0>        -0.1512
      6 C5         -1.4909    6.0823   -2.8403 C.ar      1 <0>        -0.0543
      7 C6         -0.1400    5.8028   -2.9339 C.ar      1 <0>        -0.2045
      8 C7          0.5009    5.8789   -4.1567 C.ar      1 <0>        -0.0487
      9 C8         -0.2098    6.2236   -5.2901 C.ar      1 <0>        -0.2095
     10 C9          0.6363    5.4205   -1.7002 C.3       1 <0>         0.0530
     11 N1          0.5966    3.9621   -1.5289 N.4       1 <0>        -0.3974
     12 C10         1.5308    3.5295   -0.4818 C.3       1 <0>        -0.0018
     13 C11         1.5701    2.0005   -0.4312 C.3       1 <0>        -0.1411
     14 C12         0.1645    1.4681   -0.1390 C.3       1 <0>         0.0740
     15 C13        -0.7983    1.9727   -1.2174 C.3       1 <0>        -0.1837
     16 C14        -0.7689    3.5025   -1.2452 C.3       1 <0>        -0.0023
     17 N2          0.1844   -0.0008   -0.1471 N.3       1 <0>        -0.5276
     18 C15         0.5926   -0.5147   -1.4619 C.3       1 <0>         0.0466
     19 C16         0.6776   -2.0418   -1.4059 C.3       1 <0>         0.0487
     20 N3         -0.6285   -2.5884   -1.0123 N.pl3     1 <0>        -0.4791
     21 C17        -1.0367   -2.0745    0.3025 C.3       1 <0>         0.0574
     22 C18        -1.1217   -0.5474    0.2464 C.3       1 <0>         0.0552
     23 C19        -0.6095   -3.9879   -1.0200 C.ar      1 <0>         0.0681
     24 C20         0.5918   -4.6664   -1.1648 C.ar      1 <0>        -0.1302
     25 C21         0.6085   -6.0485   -1.1672 C.ar      1 <0>        -0.1330
     26 C22        -0.5711   -6.7577   -1.0357 C.ar      1 <0>        -0.0945
     27 C23        -1.7729   -6.0881   -0.8963 C.ar      1 <0>        -0.1892
     28 C24        -1.7977   -4.7033   -0.8880 C.ar      1 <0>         0.1202
     29 O2         -2.9792   -4.0434   -0.7519 O.3       1 <0>        -0.3083
     30 C25        -4.1570   -4.8420   -0.6214 C.3       1 <0>         0.0206
     31 H1         -1.9332    7.3453   -9.6219 H         1 <0>         0.0867
     32 H2         -2.9203    8.2932   -8.4583 H         1 <0>         0.0713
     33 H3         -3.2984    6.5625   -8.7559 H         1 <0>         0.0707
     34 H4         -1.1118    5.9133   -7.7584 H         1 <0>         0.0683
     35 H5         -0.7336    7.6439   -7.4609 H         1 <0>         0.0693
     36 H6         -3.2599    6.6515   -3.8960 H         1 <0>         0.1430
     37 H7         -1.9884    6.0261   -1.8833 H         1 <0>         0.1364
     38 H8          1.5572    5.6647   -4.2265 H         1 <0>         0.1337
     39 H9          0.2904    6.2785   -6.2457 H         1 <0>         0.1399
     40 H10         1.6807    5.7487   -1.8078 H         1 <0>         0.1359
     41 H11         0.1884    5.9053   -0.8202 H         1 <0>         0.1317
     42 H12         2.5366    3.9144   -0.7059 H         1 <0>         0.1334
     43 H13         1.1973    3.9196    0.4911 H         1 <0>         0.1281
     44 H14         1.9180    1.6104   -1.3991 H         1 <0>         0.0897
     45 H15         2.2590    1.6775    0.3632 H         1 <0>         0.1208
     46 H16        -0.1710    1.7813    0.8607 H         1 <0>         0.1017
     47 H17        -0.4892    1.5804   -2.1975 H         1 <0>         0.0916
     48 H18        -1.8177    1.6279   -0.9893 H         1 <0>         0.1123
     49 H19        -1.0917    3.8927   -0.2687 H         1 <0>         0.1262
     50 H20        -1.4490    3.8676   -2.0289 H         1 <0>         0.1307
     51 H21        -0.1475   -0.2152   -2.2185 H         1 <0>         0.0498
     52 H22         1.5766   -0.1012   -1.7278 H         1 <0>         0.0852
     53 H23         0.9551   -2.4302   -2.3969 H         1 <0>         0.0887
     54 H24         1.4381   -2.3400   -0.6691 H         1 <0>         0.0559
     55 H25        -2.0207   -2.4880    0.5684 H         1 <0>         0.0973
     56 H26        -0.2966   -2.3740    1.0592 H         1 <0>         0.0497
     57 H27        -1.3987   -0.1580    1.2372 H         1 <0>         0.0869
     58 H28        -1.8815   -0.2483   -0.4907 H         1 <0>         0.0510
     59 H29         1.5141   -4.1149   -1.2718 H         1 <0>         0.1315
     60 H30         1.5447   -6.5758   -1.2762 H         1 <0>         0.1266
     61 H31        -0.5538   -7.8375   -1.0423 H         1 <0>         0.1276
     62 H32        -2.6925   -6.6451   -0.7941 H         1 <0>         0.1322
     63 H33        -5.0348   -4.1869   -0.5197 H         1 <0>         0.1022
     64 H34        -4.0704   -5.4801    0.2704 H         1 <0>         0.0566
     65 H35        -4.2724   -5.4737   -1.5145 H         1 <0>         0.0575
     66 H36         0.9160    3.5002   -2.4747 H         1 <0>         0.4374
@<TRIPOS>BOND
     1    1    2 1
     2    1   31 1
     3    1   32 1
     4    1   33 1
     5    2    3 1
     6    2   34 1
     7    2   35 1
     8    3    4 1
     9    4    9 ar
    10    4    5 ar
    11    5    6 ar
    12    5   36 1
    13    6    7 ar
    14    6   37 1
    15    7    8 ar
    16    7   10 1
    17    8    9 ar
    18    8   38 1
    19    9   39 1
    20   10   11 1
    21   10   40 1
    22   10   41 1
    23   11   16 1
    24   11   12 1
    25   11   66 1
    26   12   13 1
    27   12   42 1
    28   12   43 1
    29   13   14 1
    30   13   44 1
    31   13   45 1
    32   14   15 1
    33   14   17 1
    34   14   46 1
    35   15   16 1
    36   15   47 1
    37   15   48 1
    38   16   49 1
    39   16   50 1
    40   17   22 1
    41   17   18 1
    42   18   19 1
    43   18   51 1
    44   18   52 1
    45   19   20 1
    46   19   53 1
    47   19   54 1
    48   20   21 1
    49   20   23 1
    50   21   22 1
    51   21   55 1
    52   21   56 1
    53   22   57 1
    54   22   58 1
    55   23   28 ar
    56   23   24 ar
    57   24   25 ar
    58   24   59 1
    59   25   26 ar
    60   25   60 1
    61   26   27 ar
    62   26   61 1
    63   27   28 ar
    64   27   62 1
    65   28   29 1
    66   29   30 1
    67   30   63 1
    68   30   64 1
    69   30   65 1
@<TRIPOS>MOLECULE
ZINC33068949
   56    59     0     0     0
SMALL
USER_CHARGES

@<TRIPOS>ATOM
      1 C1         -0.4261    1.1773   -1.9496 C.3       1 <0>        -0.1225
      2 C2         -0.3213   -0.2784   -1.5739 C.ar      1 <0>        -0.0736
      3 C3         -0.0743   -1.2275   -2.5480 C.ar      1 <0>        -0.1201
      4 C4          0.0218   -2.5628   -2.2035 C.ar      1 <0>        -0.0929
      5 C5         -0.1286   -2.9488   -0.8847 C.ar      1 <0>        -0.0975
      6 C6         -0.3747   -1.9995    0.0896 C.ar      1 <0>        -0.1119
      7 C7         -0.4666   -0.6638   -0.2544 C.ar      1 <0>        -0.1192
      8 C8         -0.0249   -4.4046   -0.5091 C.3       1 <0>         0.0909
      9 N1          1.3714   -4.7292   -0.1882 N.3       1 <0>        -0.5300
     10 C9          1.8109   -4.0236    1.0230 C.3       1 <0>         0.0452
     11 C10         0.8330   -4.3114    2.1640 C.3       1 <0>         0.0132
     12 O1          0.9198   -5.6901    2.5294 O.3       1 <0>        -0.3977
     13 C11         0.0421   -6.0660    3.5926 C.3       1 <0>         0.0249
     14 C12         1.5560   -6.1798   -0.0487 C.3       1 <0>         0.0626
     15 C13         3.0183   -6.4831    0.1528 C.2       1 <0>         0.1948
     16 C14         3.4663   -7.0195    1.3412 C.2       1 <0>        -0.2109
     17 C15         4.8239   -7.2934    1.5095 C.2       1 <0>         0.5224
     18 O2          5.2265   -7.7688    2.5596 O.2       1 <0>        -0.4374
     19 N2          5.7024   -7.0289    0.4961 N.am      1 <0>        -0.4314
     20 C16         7.0716   -7.2542    0.5358 C.2       1 <0>         0.0755
     21 C17         7.7987   -6.9413   -0.5440 C.2       1 <0>        -0.1349
     22 S1          6.6027   -6.3074   -1.6906 S.3       1 <0>         0.3032
     23 C18         5.1732   -6.4984   -0.6464 C.cat     1 <0>         0.3140
     24 N3          3.8993   -6.2429   -0.8152 N.pl3     1 <0>        -0.4747
     25 C19         9.2739   -7.0918   -0.7352 C.3       1 <0>        -0.0462
     26 C20         9.9181   -7.3319    0.6384 C.3       1 <0>        -0.1212
     27 C21         9.1097   -8.4036    1.3760 C.3       1 <0>        -0.1279
     28 C22         7.7440   -7.8442    1.7739 C.3       1 <0>        -0.0582
     29 H1          0.5603    1.6381   -1.8967 H         1 <0>         0.0737
     30 H2         -0.8134    1.2636   -2.9648 H         1 <0>         0.0700
     31 H3         -1.1009    1.6831   -1.2590 H         1 <0>         0.0696
     32 H4          0.0432   -0.9259   -3.5784 H         1 <0>         0.1246
     33 H5          0.2141   -3.3044   -2.9646 H         1 <0>         0.1224
     34 H6         -0.4926   -2.3012    1.1199 H         1 <0>         0.1174
     35 H7         -0.6551    0.0782    0.5074 H         1 <0>         0.1240
     36 H8         -0.6526   -4.6013    0.3600 H         1 <0>         0.0624
     37 H9         -0.3581   -5.0200   -1.3448 H         1 <0>         0.0933
     38 H10         2.8068   -4.3674    1.3026 H         1 <0>         0.0760
     39 H11         1.8378   -2.9513    0.8292 H         1 <0>         0.1080
     40 H12         1.0854   -3.6910    3.0239 H         1 <0>         0.0641
     41 H13        -0.1822   -4.0851    1.8381 H         1 <0>         0.0675
     42 H14         0.2781   -5.4820    4.4822 H         1 <0>         0.0485
     43 H15        -0.9895   -5.8761    3.2964 H         1 <0>         0.0470
     44 H16         0.1683   -7.1266    3.8102 H         1 <0>         0.0919
     45 H17         0.9890   -6.5372    0.8110 H         1 <0>         0.1265
     46 H18         1.2022   -6.6795   -0.9504 H         1 <0>         0.1163
     47 H19         2.7688   -7.2267    2.1393 H         1 <0>         0.2075
     48 H20         9.4747   -7.9410   -1.3884 H         1 <0>         0.1114
     49 H21         9.6813   -6.1830   -1.1781 H         1 <0>         0.1084
     50 H22        10.9446   -7.6739    0.5064 H         1 <0>         0.0972
     51 H23         9.9091   -6.4061    1.2137 H         1 <0>         0.0796
     52 H24         8.9713   -9.2656    0.7234 H         1 <0>         0.0777
     53 H25         9.6495   -8.7119    2.2713 H         1 <0>         0.0960
     54 H26         7.8741   -7.0650    2.5250 H         1 <0>         0.1053
     55 H27         7.1250   -8.6446    2.1791 H         1 <0>         0.1105
     56 H28         3.5944   -5.8693   -1.6568 H         1 <0>         0.4651
@<TRIPOS>BOND
     1    1    2 1
     2    1   29 1
     3    1   30 1
     4    1   31 1
     5    2    7 ar
     6    2    3 ar
     7    3    4 ar
     8    3   32 1
     9    4    5 ar
    10    4   33 1
    11    5    6 ar
    12    5    8 1
    13    6    7 ar
    14    6   34 1
    15    7   35 1
    16    8    9 1
    17    8   36 1
    18    8   37 1
    19    9   10 1
    20    9   14 1
    21   10   11 1
    22   10   38 1
    23   10   39 1
    24   11   12 1
    25   11   40 1
    26   11   41 1
    27   12   13 1
    28   13   42 1
    29   13   43 1
    30   13   44 1
    31   14   15 1
    32   14   45 1
    33   14   46 1
    34   15   24 1
    35   15   16 2
    36   16   17 1
    37   16   47 1
    38   17   18 2
    39   17   19 am
    40   19   23 1
    41   19   20 1
    42   20   28 1
    43   20   21 2
    44   21   22 1
    45   21   25 1
    46   22   23 1
    47   23   24 2
    48   24   56 1
    49   25   26 1
    50   25   48 1
    51   25   49 1
    52   26   27 1
    53   26   50 1
    54   26   51 1
    55   27   28 1
    56   27   52 1
    57   27   53 1
    58   28   54 1
    59   28   55 1
@<TRIPOS>MOLECULE
ZINC39513071
   62    65     0     0     0
SMALL
USER_CHARGES

@<TRIPOS>ATOM
      1 C1          0.2374    0.8119   -0.6952 C.3       1 <0>        -0.1540
      2 C2          0.1374   -0.7046   -0.5189 C.3       1 <0>         0.0510
      3 O1         -1.2344   -1.1011   -0.5735 O.3       1 <0>        -0.3633
      4 C3         -1.4398   -2.5067   -0.4186 C.3       1 <0>         0.0685
      5 H1         -0.6544   -2.9447    0.1974 H         1 <0>         0.0842
      6 C4         -1.5095   -3.2067   -1.7988 C.3       1 <0>        -0.1551
      7 C5         -2.3126   -4.4967   -1.5290 C.3       1 <0>        -0.1757
      8 C6         -3.1552   -4.2315   -0.2720 C.3       1 <0>         0.0867
      9 C7         -2.8368   -2.7940    0.1871 C.3       1 <0>        -0.1700
     10 C8         -2.7694   -5.2161    0.8299 C.3       1 <0>        -0.6520
     11 H2         -3.3389   -4.9938    1.7323 H         1 <0>         0.1634
     12 C9         -3.0818   -6.6424    0.3664 C.3       1 <0>        -0.1257
     13 C10        -4.5627   -6.7313   -0.0134 C.3       1 <0>        -0.1314
     14 C11        -4.8696   -5.6960   -1.0976 C.3       1 <0>        -0.0222
     15 N1         -4.5801   -4.3493   -0.5893 N.4       1 <0>        -0.3633
     16 C12        -4.9364   -3.3553   -1.6106 C.3       1 <0>         0.0283
     17 C13        -6.4205   -3.4083   -1.8670 C.ar      1 <0>        -0.1565
     18 C14        -6.9244   -4.2538   -2.8376 C.ar      1 <0>        -0.0985
     19 C15        -8.2857   -4.3024   -3.0728 C.ar      1 <0>        -0.1122
     20 C16        -9.1432   -3.5059   -2.3371 C.ar      1 <0>        -0.0839
     21 C17        -8.6393   -2.6612   -1.3658 C.ar      1 <0>        -0.1113
     22 C18        -7.2784   -2.6157   -1.1276 C.ar      1 <0>        -0.0938
     23 S1         -0.9959   -5.0674    1.1812 S.o2      1 <0>         2.6077
     24 O2         -0.2390   -5.3822    0.0205 O.2       1 <0>        -0.8999
     25 O3         -0.7400   -3.8757    1.9117 O.2       1 <0>        -0.9258
     26 O4         -0.6949   -6.1945    2.1587 O.3       1 <0>        -0.6463
     27 C19        -1.1181   -5.9535    3.4274 C.ar      1 <0>         0.0468
     28 C20        -0.2489   -5.4005    4.3566 C.ar      1 <0>        -0.0826
     29 C21        -0.6816   -5.1561    5.6455 C.ar      1 <0>        -0.0932
     30 C22        -1.9796   -5.4626    6.0100 C.ar      1 <0>        -0.0897
     31 C23        -2.8477   -6.0142    5.0860 C.ar      1 <0>        -0.0982
     32 C24        -2.4217   -6.2548    3.7941 C.ar      1 <0>        -0.1416
     33 H3          1.2838    1.1143   -0.6536 H         1 <0>         0.0787
     34 H4         -0.1843    1.0941   -1.6599 H         1 <0>         0.0653
     35 H5         -0.3161    1.3076    0.1023 H         1 <0>         0.0658
     36 H6          0.6909   -1.2004   -1.3165 H         1 <0>         0.0560
     37 H7          0.5591   -0.9869    0.4457 H         1 <0>         0.0597
     38 H8         -2.0304   -2.5769   -2.5200 H         1 <0>         0.0968
     39 H9         -0.5081   -3.4483   -2.1550 H         1 <0>         0.1026
     40 H10        -2.9632   -4.7158   -2.3756 H         1 <0>         0.1053
     41 H11        -1.6326   -5.3305   -1.3540 H         1 <0>         0.1333
     42 H12        -2.8003   -2.7367    1.2750 H         1 <0>         0.1202
     43 H13        -3.5750   -2.0962   -0.2082 H         1 <0>         0.1214
     44 H14        -2.4678   -6.8868   -0.5004 H         1 <0>         0.1055
     45 H15        -2.8698   -7.3429    1.1742 H         1 <0>         0.1102
     46 H16        -4.7822   -7.7299   -0.3912 H         1 <0>         0.1235
     47 H17        -5.1763   -6.5310    0.8650 H         1 <0>         0.0929
     48 H18        -4.2517   -5.8939   -1.9735 H         1 <0>         0.1348
     49 H19        -5.9219   -5.7612   -1.3741 H         1 <0>         0.1409
     50 H20        -4.6636   -2.3601   -1.2597 H         1 <0>         0.1453
     51 H21        -4.4001   -3.5747   -2.5338 H         1 <0>         0.1406
     52 H22        -6.2545   -4.8760   -3.4125 H         1 <0>         0.1310
     53 H23        -8.6794   -4.9624   -3.8317 H         1 <0>         0.1366
     54 H24       -10.2067   -3.5434   -2.5213 H         1 <0>         0.1362
     55 H25        -9.3092   -2.0387   -0.7912 H         1 <0>         0.1366
     56 H26        -6.8851   -1.9585   -0.3662 H         1 <0>         0.1314
     57 H27         0.7654   -5.1616    4.0725 H         1 <0>         0.1446
     58 H28        -0.0053   -4.7256    6.3692 H         1 <0>         0.1476
     59 H29        -2.3159   -5.2711    7.0183 H         1 <0>         0.1434
     60 H30        -3.8611   -6.2531    5.3733 H         1 <0>         0.1441
     61 H31        -3.1015   -6.6816    3.0715 H         1 <0>         0.1366
     62 H32        -5.1239   -4.1816    0.2439 H         1 <0>         0.4228
@<TRIPOS>BOND
     1    1    2 1
     2    1   33 1
     3    1   34 1
     4    1   35 1
     5    2    3 1
     6    2   36 1
     7    2   37 1
     8    3    4 1
     9    4    5 1
    10    4    9 1
    11    4    6 1
    12    6    7 1
    13    6   38 1
    14    6   39 1
    15    7    8 1
    16    7   40 1
    17    7   41 1
    18    8   15 1
    19    8    9 1
    20    8   10 1
    21    9   42 1
    22    9   43 1
    23   10   11 1
    24   10   12 1
    25   10   23 1
    26   12   13 1
    27   12   44 1
    28   12   45 1
    29   13   14 1
    30   13   46 1
    31   13   47 1
    32   14   15 1
    33   14   48 1
    34   14   49 1
    35   15   16 1
    36   15   62 1
    37   16   17 1
    38   16   50 1
    39   16   51 1
    40   17   22 ar
    41   17   18 ar
    42   18   19 ar
    43   18   52 1
    44   19   20 ar
    45   19   53 1
    46   20   21 ar
    47   20   54 1
    48   21   22 ar
    49   21   55 1
    50   22   56 1
    51   23   24 2
    52   23   25 2
    53   23   26 1
    54   26   27 1
    55   27   32 ar
    56   27   28 ar
    57   28   29 ar
    58   28   57 1
    59   29   30 ar
    60   29   58 1
    61   30   31 ar
    62   30   59 1
    63   31   32 ar
    64   31   60 1
    65   32   61 1
@<TRIPOS>MOLECULE
ZINC66472334
   46    48     0     0     0
SMALL
USER_CHARGES

@<TRIPOS>ATOM
      1 C1         -0.0187    1.5258    0.0104 C.3       1 <0>        -0.1827
      2 C2          0.0021   -0.0041    0.0020 C.3       1 <0>         0.1449
      3 H1         -1.0205   -0.3814    0.0098 H         1 <0>         0.1686
      4 C3          0.7309   -0.5033    1.2229 C.2       1 <0>         0.0901
      5 N1          2.0208   -0.4815    1.4120 N.2       1 <0>        -0.2433
      6 N2          2.2953   -0.9868    2.5629 N.2       1 <0>        -0.2631
      7 C4          1.1809   -1.3513    3.1523 C.2       1 <0>         0.2670
      8 O1          0.1684   -1.0462    2.3163 O.3       1 <0>        -0.1994
      9 C5          1.0583   -1.9754    4.4871 C.ar      1 <0>        -0.0434
     10 C6         -0.1989   -2.3180    4.9876 C.ar      1 <0>        -0.0709
     11 C7         -0.3071   -2.9005    6.2334 C.ar      1 <0>        -0.1046
     12 C8          0.8269   -3.1451    6.9873 C.ar      1 <0>        -0.0666
     13 C9          2.0770   -2.8074    6.4974 C.ar      1 <0>        -0.0395
     14 C10         2.1991   -2.2295    5.2490 C.ar      1 <0>        -0.0495
     15 Cl1         3.4940   -3.1172    7.4511 Cl        1 <0>        -0.0381
     16 N3          0.6897   -0.4778   -1.2066 N.4       1 <0>        -0.3827
     17 C11        -0.0208    0.0088   -2.3967 C.3       1 <0>        -0.0579
     18 C12         0.7096   -1.9467   -1.2147 C.3       1 <0>         0.0426
     19 C13         1.5201   -2.4316   -2.3889 C.ar      1 <0>        -0.1251
     20 C14         0.9050   -2.6582   -3.6066 C.ar      1 <0>        -0.1208
     21 C15         1.6457   -3.1030   -4.6857 C.ar      1 <0>        -0.0725
     22 C16         3.0030   -3.3228   -4.5499 C.ar      1 <0>        -0.1583
     23 C17         3.6224   -3.0963   -3.3296 C.ar      1 <0>         0.1191
     24 C18         2.8778   -2.6440   -2.2497 C.ar      1 <0>        -0.1100
     25 O2          4.9573   -3.3117   -3.1935 O.3       1 <0>        -0.3159
     26 C19         5.6614   -3.7715   -4.3489 C.3       1 <0>         0.4121
     27 F1          5.1241   -4.9938   -4.7666 F         1 <0>        -0.1927
     28 F2          5.5353   -2.8310   -5.3768 F         1 <0>        -0.1937
     29 H2          1.0039    1.9031    0.0027 H         1 <0>         0.0955
     30 H3         -0.5459    1.8868   -0.8726 H         1 <0>         0.1072
     31 H4         -0.5289    1.8773    0.9072 H         1 <0>         0.1137
     32 H5         -1.0852   -2.1271    4.4008 H         1 <0>         0.1406
     33 H6         -1.2795   -3.1658    6.6213 H         1 <0>         0.1509
     34 H7          0.7365   -3.6010    7.9622 H         1 <0>         0.1502
     35 H8          3.1749   -1.9705    4.8655 H         1 <0>         0.1538
     36 H9          0.4894   -0.3427   -3.2935 H         1 <0>         0.1349
     37 H10        -1.0434   -0.3685   -2.3890 H         1 <0>         0.1303
     38 H11        -0.0356    1.0987   -2.3907 H         1 <0>         0.1339
     39 H12         1.1577   -2.3090   -0.2895 H         1 <0>         0.1279
     40 H13        -0.3100   -2.3234   -1.2965 H         1 <0>         0.1458
     41 H14        -0.1560   -2.4876   -3.7146 H         1 <0>         0.1390
     42 H15         1.1630   -3.2793   -5.6356 H         1 <0>         0.1451
     43 H16         3.5812   -3.6710   -5.3930 H         1 <0>         0.1462
     44 H17         3.3586   -2.4623   -1.2998 H         1 <0>         0.1443
     45 H18         6.7153   -3.9028   -4.1038 H         1 <0>         0.1919
     46 H19         1.6363   -0.1286   -1.2138 H         1 <0>         0.4347
@<TRIPOS>BOND
     1    1    2 1
     2    1   29 1
     3    1   30 1
     4    1   31 1
     5    2    3 1
     6    2    4 1
     7    2   16 1
     8    4    8 1
     9    4    5 2
    10    5    6 1
    11    6    7 2
    12    7    8 1
    13    7    9 1
    14    9   14 ar
    15    9   10 ar
    16   10   11 ar
    17   10   32 1
    18   11   12 ar
    19   11   33 1
    20   12   13 ar
    21   12   34 1
    22   13   14 ar
    23   13   15 1
    24   14   35 1
    25   16   17 1
    26   16   18 1
    27   16   46 1
    28   17   36 1
    29   17   37 1
    30   17   38 1
    31   18   19 1
    32   18   39 1
    33   18   40 1
    34   19   24 ar
    35   19   20 ar
    36   20   21 ar
    37   20   41 1
    38   21   22 ar
    39   21   42 1
    40   22   23 ar
    41   22   43 1
    42   23   24 ar
    43   23   25 1
    44   24   44 1
    45   25   26 1
    46   26   27 1
    47   26   28 1
    48   26   45 1
@<TRIPOS>MOLECULE
ZINC14539655
   59    61     0     0     0
SMALL
USER_CHARGES
[(5S)-1-allyl-5-(butyl-methyl-amino)-4,5,6,7-tetrahydroindazol-3-yl]-thiomorpholino-methanone
@<TRIPOS>ATOM
      1 C1         -0.3757    3.4779   -0.8350 C.3       1 <0>        -0.1591
      2 C2          0.2747    2.6614    0.2836 C.3       1 <0>        -0.1208
      3 C3         -0.4264    2.9638    1.6095 C.3       1 <0>        -0.1502
      4 C4          0.2240    2.1473    2.7281 C.3       1 <0>        -0.0075
      5 C5         -0.2249    3.8307    4.4095 C.3       1 <0>        -0.0551
      6 C6         -0.0160    1.5051    5.0503 C.3       1 <0>         0.0288
      7 H1         -0.0930    0.4823    4.6816 H         1 <0>         0.1393
      8 C7          1.4374    1.8027    5.4290 C.3       1 <0>        -0.1305
      9 C8          1.9740    0.6859    6.3332 C.3       1 <0>        -0.0460
     10 C9          0.9849    0.4620    7.4481 C.2       1 <0>         0.0197
     11 C10        -0.2962    0.9053    7.4224 C.2       1 <0>        -0.1589
     12 C11        -0.8700    0.4982    8.6384 C.2       1 <0>         0.0068
     13 N1          0.0716   -0.1488    9.3037 N.2       1 <0>        -0.2474
     14 N2          1.1611   -0.1769    8.6164 N.pl3     1 <0>        -0.2567
     15 C12         2.4093   -0.8119    9.0465 C.3       1 <0>         0.1419
     16 C13         3.2489    0.1887    9.7982 C.2       1 <0>        -0.2050
     17 C14         3.6684   -0.0860   11.0084 C.2       1 <0>        -0.1303
     18 C15        -2.2557    0.7451    9.0865 C.2       1 <0>         0.6039
     19 O1         -3.0589    1.2517    8.3274 O.2       1 <0>        -0.5321
     20 N3         -2.6297    0.4087   10.3369 N.am      1 <0>        -0.6006
     21 C16        -4.0384    0.5083   10.7216 C.3       1 <0>         0.1085
     22 C17        -4.5857   -0.9002   11.0064 C.3       1 <0>        -0.1010
     23 S1         -3.5692   -1.6662   12.3048 S.3       1 <0>        -0.2511
     24 C18        -1.8797   -1.5148   11.6504 C.3       1 <0>        -0.0941
     25 C19        -1.6213   -0.0461   11.2953 C.3       1 <0>         0.0807
     26 C20        -0.9120    1.6725    6.2851 C.3       1 <0>        -0.0558
     27 H2         -0.2842    4.5404   -0.6096 H         1 <0>         0.0590
     28 H3          0.1238    3.2625   -1.7796 H         1 <0>         0.0665
     29 H4         -1.4300    3.2124   -0.9127 H         1 <0>         0.0595
     30 H5          0.1832    1.5989    0.0583 H         1 <0>         0.0728
     31 H6          1.3290    2.9269    0.3613 H         1 <0>         0.0724
     32 H7         -0.3349    4.0263    1.8349 H         1 <0>         0.0873
     33 H8         -1.4807    2.6983    1.5318 H         1 <0>         0.0868
     34 H9          0.1325    1.0848    2.5027 H         1 <0>         0.1287
     35 H10         1.2783    2.4128    2.8058 H         1 <0>         0.1309
     36 H11        -0.6182    4.5012    3.6454 H         1 <0>         0.1249
     37 H12        -0.7341    4.0187    5.3548 H         1 <0>         0.1249
     38 H13         0.8440    4.0060    4.5315 H         1 <0>         0.1247
     39 H14         2.0434    1.8602    4.5248 H         1 <0>         0.0970
     40 H15         1.4867    2.7537    5.9593 H         1 <0>         0.0957
     41 H16         2.9368    0.9812    6.7502 H         1 <0>         0.1025
     42 H17         2.0898   -0.2310    5.7553 H         1 <0>         0.0976
     43 H18         2.1819   -1.6567    9.6966 H         1 <0>         0.1134
     44 H19         2.9581   -1.1632    8.1727 H         1 <0>         0.1132
     45 H20         3.5047    1.1322    9.3391 H         1 <0>         0.1175
     46 H21         4.2702    0.6310   11.5470 H         1 <0>         0.1129
     47 H22         3.4126   -1.0295   11.4674 H         1 <0>         0.1075
     48 H23        -4.1279    1.1234   11.6170 H         1 <0>         0.0905
     49 H24        -4.6054    0.9638    9.9097 H         1 <0>         0.1085
     50 H25        -4.5371   -1.5038   10.1001 H         1 <0>         0.0860
     51 H26        -5.6196   -0.8308   11.3446 H         1 <0>         0.1221
     52 H27        -1.7769   -2.1307   10.7570 H         1 <0>         0.0842
     53 H28        -1.1625   -1.8407   12.4037 H         1 <0>         0.1179
     54 H29        -0.6297    0.0518   10.8534 H         1 <0>         0.1389
     55 H30        -1.6782    0.5615   12.1985 H         1 <0>         0.0844
     56 H31        -0.9811    2.7279    6.5486 H         1 <0>         0.0969
     57 H32        -1.9066    1.2802    6.0732 H         1 <0>         0.1089
     58 N4         -0.4774    2.4340    3.9972 N.4       1 <0>        -0.3934
     59 H33        -1.4863    2.3048    3.8572 H         1 <0>         0.4318
@<TRIPOS>BOND
     1    1    2 1
     2    1   27 1
     3    1   28 1
     4    1   29 1
     5    2    3 1
     6    2   30 1
     7    2   31 1
     8    3    4 1
     9    3   32 1
    10    3   33 1
    11    4   34 1
    12    4   35 1
    13    4   58 1
    14    5   36 1
    15    5   37 1
    16    5   38 1
    17    5   58 1
    18    6    7 1
    19    6   26 1
    20    6    8 1
    21    6   58 1
    22    8    9 1
    23    8   39 1
    24    8   40 1
    25    9   10 1
    26    9   41 1
    27    9   42 1
    28   10   14 1
    29   10   11 2
    30   11   12 1
    31   11   26 1
    32   12   13 2
    33   12   18 1
    34   13   14 1
    35   14   15 1
    36   15   16 1
    37   15   43 1
    38   15   44 1
    39   16   17 2
    40   16   45 1
    41   17   46 1
    42   17   47 1
    43   18   19 2
    44   18   20 am
    45   20   25 1
    46   20   21 1
    47   21   22 1
    48   21   48 1
    49   21   49 1
    50   22   23 1
    51   22   50 1
    52   22   51 1
    53   23   24 1
    54   24   25 1
    55   24   52 1
    56   24   53 1
    57   25   54 1
    58   25   55 1
    59   26   56 1
    60   26   57 1
    61   58   59 1
@<TRIPOS>MOLECULE
ZINC25453353
   54    57     0     0     0
SMALL
USER_CHARGES
4-(2-furylmethyl)-2-[[[(1R)-indan-1-yl]-methyl-amino]methyl]-5-isopropyl-1,2,4-triazole-3-thione
@<TRIPOS>ATOM
      1 C1          0.5627    0.4247    0.0996 C.3       1 <0>        -0.1480
      2 C2         -0.9596    0.2721    0.1149 C.3       1 <0>        -0.0237
      3 C3         -1.5493    0.9156   -1.1417 C.3       1 <0>        -0.1497
      4 C4         -1.5202    0.9515    1.3376 C.2       1 <0>         0.3218
      5 N1         -1.3973    2.2075    1.6242 N.2       1 <0>        -0.2798
      6 N2         -2.0557    2.4444    2.8387 N.pl3     1 <0>        -0.4260
      7 C5         -2.5712    1.2677    3.2517 C.2       1 <0>         0.4579
      8 S1         -3.4732    1.0027    4.6825 S.2       1 <0>        -0.5130
      9 N3         -2.2503    0.3405    2.3272 N.pl3     1 <0>        -0.4848
     10 C6         -2.6151   -1.0777    2.3724 C.3       1 <0>         0.1957
     11 C7         -1.5418   -1.8497    3.0955 C.2       1 <0>        -0.0843
     12 C8         -1.4981   -2.0844    4.4193 C.2       1 <0>        -0.1408
     13 C9         -0.3297   -2.8424    4.6625 C.2       1 <0>        -0.2203
     14 C10         0.2750   -3.0186    3.4739 C.2       1 <0>        -0.0077
     15 O1         -0.4636   -2.4151    2.5284 O.3       1 <0>        -0.1733
     16 C11        -2.1645    3.7309    3.5310 C.3       1 <0>         0.2672
     17 N4         -3.3717    4.4323    3.0742 N.4       1 <0>        -0.4241
     18 C12        -3.2592    4.8060    1.6580 C.3       1 <0>        -0.0523
     19 C13        -3.6443    5.6097    3.9093 C.3       1 <0>         0.0884
     20 H1         -2.7353    6.2252    3.8394 H         1 <0>         0.1395
     21 C14        -3.9926    5.1761    5.3490 C.3       1 <0>        -0.1369
     22 C15        -5.5347    5.0775    5.2987 C.3       1 <0>        -0.0978
     23 C16        -5.9576    6.0329    4.2035 C.ar      1 <0>        -0.0579
     24 C17        -4.8712    6.3387    3.4049 C.ar      1 <0>        -0.1653
     25 C18        -5.0253    7.2006    2.3324 C.ar      1 <0>        -0.0813
     26 C19        -6.2603    7.7559    2.0586 C.ar      1 <0>        -0.1173
     27 C20        -7.3463    7.4503    2.8570 C.ar      1 <0>        -0.0771
     28 C21        -7.1946    6.5901    3.9273 C.ar      1 <0>        -0.1039
     29 H2          0.9867   -0.0380    1.0030 H         1 <0>         0.0636
     30 H3          0.8239    1.4930    0.0776 H         1 <0>         0.0708
     31 H4          0.9719   -0.0713   -0.7929 H         1 <0>         0.0865
     32 H5         -1.2284   -0.7940    0.1504 H         1 <0>         0.1097
     33 H6         -2.6438    0.8059   -1.1307 H         1 <0>         0.0623
     34 H7         -1.1400    0.4196   -2.0342 H         1 <0>         0.0876
     35 H8         -1.2881    1.9839   -1.1636 H         1 <0>         0.0711
     36 H9         -3.5712   -1.1936    2.9038 H         1 <0>         0.1516
     37 H10        -2.7164   -1.4631    1.3471 H         1 <0>         0.1276
     38 H11        -2.2185   -1.7584    5.1549 H         1 <0>         0.1613
     39 H12         0.0138   -3.2064    5.6196 H         1 <0>         0.1565
     40 H13         1.1981   -3.5541    3.3082 H         1 <0>         0.2113
     41 H14        -2.2284    3.5593    4.6157 H         1 <0>         0.1775
     42 H15        -1.2783    4.3433    3.3083 H         1 <0>         0.1689
     43 H16        -4.1745    5.3284    1.3428 H         1 <0>         0.1316
     44 H17        -3.1262    3.8996    1.0491 H         1 <0>         0.1172
     45 H18        -2.3927    5.4698    1.5217 H         1 <0>         0.1258
     46 H19        -3.5084    4.2133    5.5692 H         1 <0>         0.1043
     47 H20        -3.6346    5.9372    6.0579 H         1 <0>         0.1214
     48 H21        -5.8286    4.0428    5.0685 H         1 <0>         0.0984
     49 H22        -5.9528    5.3692    6.2735 H         1 <0>         0.1045
     50 H23        -4.1772    7.4400    1.7080 H         1 <0>         0.1294
     51 H24        -6.3771    8.4282    1.2214 H         1 <0>         0.1383
     52 H25        -8.3125    7.8833    2.6442 H         1 <0>         0.1389
     53 H26        -8.0436    6.3518    4.5508 H         1 <0>         0.1355
     54 H27        -4.2222    3.7421    3.1752 H         1 <0>         0.4433
@<TRIPOS>BOND
     1    1    2 1
     2    1   29 1
     3    1   30 1
     4    1   31 1
     5    2    3 1
     6    2    4 1
     7    2   32 1
     8    3   33 1
     9    3   34 1
    10    3   35 1
    11    4    9 1
    12    4    5 2
    13    5    6 1
    14    6    7 1
    15    6   16 1
    16    7    8 2
    17    7    9 1
    18    9   10 1
    19   10   11 1
    20   10   36 1
    21   10   37 1
    22   11   15 1
    23   11   12 2
    24   12   13 1
    25   12   38 1
    26   13   14 2
    27   13   39 1
    28   14   15 1
    29   14   40 1
    30   16   17 1
    31   16   41 1
    32   16   42 1
    33   17   18 1
    34   17   19 1
    35   17   54 1
    36   18   43 1
    37   18   44 1
    38   18   45 1
    39   19   20 1
    40   19   24 1
    41   19   21 1
    42   21   22 1
    43   21   46 1
    44   21   47 1
    45   22   23 1
    46   22   48 1
    47   22   49 1
    48   23   28 ar
    49   23   24 ar
    50   24   25 ar
    51   25   26 ar
    52   25   50 1
    53   26   27 ar
    54   26   51 1
    55   27   28 ar
    56   27   52 1
    57   28   53 1
@<TRIPOS>MOLECULE
ZINC39917151
   53    56     0     0     0
SMALL
USER_CHARGES

@<TRIPOS>ATOM
      1 C1         -0.0178    1.4648    0.0101 C.3       1 <0>        -0.0459
      2 N1          0.0021   -0.0041    0.0020 N.4       1 <0>        -0.3885
      3 C2          0.6881   -0.4775   -1.2074 C.3       1 <0>        -0.0025
      4 C3          0.6925   -2.0076   -1.2257 C.3       1 <0>         0.0268
      5 N2          1.3783   -2.5070   -0.0254 N.3       1 <0>        -0.5305
      6 C4          0.7172   -2.0206    1.1938 C.3       1 <0>         0.0118
      7 C5          0.7125   -0.4904    1.1921 C.3       1 <0>        -0.0004
      8 C6          1.4533   -3.9741   -0.0341 C.3       1 <0>         0.1372
      9 C7          2.3669   -4.4368    1.0715 C.2       1 <0>         0.2665
     10 N3          3.6504   -4.6139    0.9528 N.2       1 <0>        -0.4537
     11 C8          4.1648   -5.0335    2.1374 C.ar      1 <0>         0.0436
     12 C9          5.4529   -5.3663    2.5648 C.ar      1 <0>        -0.0571
     13 C10         5.6601   -5.7657    3.8546 C.ar      1 <0>        -0.1219
     14 C11         4.6024   -5.8457    4.7495 C.ar      1 <0>        -0.0855
     15 C12         3.3233   -5.5223    4.3500 C.ar      1 <0>        -0.1175
     16 C13         3.0936   -5.1139    3.0431 C.ar      1 <0>         0.0555
     17 N4          1.9707   -4.7247    2.3407 N.pl3     1 <0>        -0.4900
     18 C14         0.6050   -4.6404    2.8641 C.3       1 <0>         0.1074
     19 C15        -0.1020   -5.9824    2.6631 C.3       1 <0>         0.0406
     20 O1         -1.4341   -5.9002    3.1737 O.3       1 <0>        -0.3108
     21 C16        -2.2037   -7.0160    3.0724 C.ar      1 <0>         0.1266
     22 C17        -1.6851   -8.1676    2.4986 C.ar      1 <0>        -0.1940
     23 C18        -2.4688   -9.3006    2.3965 C.ar      1 <0>        -0.0676
     24 C19        -3.7705   -9.2871    2.8657 C.ar      1 <0>        -0.0663
     25 C20        -4.2896   -8.1393    3.4379 C.ar      1 <0>        -0.0686
     26 C21        -3.5069   -7.0063    3.5478 C.ar      1 <0>        -0.1344
     27 Cl1        -4.7536  -10.7120    2.7357 Cl        1 <0>        -0.0581
     28 H1          1.0047    1.8421    0.0024 H         1 <0>         0.1240
     29 H2         -0.5450    1.8259   -0.8730 H         1 <0>         0.1260
     30 H3         -0.5280    1.8163    0.9069 H         1 <0>         0.1247
     31 H4          0.1675   -0.1052   -2.0897 H         1 <0>         0.1400
     32 H5          1.7147   -0.1111   -1.2098 H         1 <0>         0.1404
     33 H6         -0.3339   -2.3742   -1.2371 H         1 <0>         0.0654
     34 H7          1.2146   -2.3592   -2.1156 H         1 <0>         0.1309
     35 H8         -0.3088   -2.3874    1.2222 H         1 <0>         0.0658
     36 H9          1.2573   -2.3817    2.0691 H         1 <0>         0.1204
     37 H10         1.7390   -0.1239    1.1774 H         1 <0>         0.1400
     38 H11         0.2100   -0.1276    2.0887 H         1 <0>         0.1378
     39 H12         0.4575   -4.3897    0.1196 H         1 <0>         0.0674
     40 H13         1.8441   -4.3122   -0.9938 H         1 <0>         0.1271
     41 H14         6.2831   -5.3082    1.8765 H         1 <0>         0.1339
     42 H15         6.6571   -6.0220    4.1812 H         1 <0>         0.1360
     43 H16         4.7825   -6.1639    5.7657 H         1 <0>         0.1361
     44 H17         2.5037   -5.5860    5.0504 H         1 <0>         0.1238
     45 H18         0.6374   -4.4026    3.9274 H         1 <0>         0.1089
     46 H19         0.0600   -3.8596    2.3336 H         1 <0>         0.0987
     47 H20        -0.1344   -6.2202    1.5999 H         1 <0>         0.0698
     48 H21         0.4430   -6.7632    3.1936 H         1 <0>         0.0765
     49 H22        -0.6694   -8.1783    2.1316 H         1 <0>         0.1342
     50 H23        -2.0655  -10.1973    1.9498 H         1 <0>         0.1399
     51 H24        -5.3059   -8.1305    3.8032 H         1 <0>         0.1452
     52 H25        -3.9109   -6.1120    3.9988 H         1 <0>         0.1418
     53 H26        -0.9446   -0.3531    0.0097 H         1 <0>         0.4226
@<TRIPOS>BOND
     1    1    2 1
     2    1   28 1
     3    1   29 1
     4    1   30 1
     5    2    7 1
     6    2    3 1
     7    2   53 1
     8    3    4 1
     9    3   31 1
    10    3   32 1
    11    4    5 1
    12    4   33 1
    13    4   34 1
    14    5    6 1
    15    5    8 1
    16    6    7 1
    17    6   35 1
    18    6   36 1
    19    7   37 1
    20    7   38 1
    21    8    9 1
    22    8   39 1
    23    8   40 1
    24    9   17 1
    25    9   10 2
    26   10   11 1
    27   11   16 ar
    28   11   12 ar
    29   12   13 ar
    30   12   41 1
    31   13   14 ar
    32   13   42 1
    33   14   15 ar
    34   14   43 1
    35   15   16 ar
    36   15   44 1
    37   16   17 1
    38   17   18 1
    39   18   19 1
    40   18   45 1
    41   18   46 1
    42   19   20 1
    43   19   47 1
    44   19   48 1
    45   20   21 1
    46   21   26 ar
    47   21   22 ar
    48   22   23 ar
    49   22   49 1
    50   23   24 ar
    51   23   50 1
    52   24   25 ar
    53   24   27 1
    54   25   26 ar
    55   25   51 1
    56   26   52 1
@<TRIPOS>MOLECULE
ZINC63908395
   46    49     0     0     0
SMALL
USER_CHARGES

@<TRIPOS>ATOM
      1 C1         -0.0625    1.3075    0.1486 C.2       1 <0>        -0.1589
      2 C2         -0.0457    0.0018    0.0431 C.2       1 <0>        -0.1938
      3 C3          1.2655   -0.7248   -0.1122 C.3       1 <0>         0.1164
      4 N1          1.3823   -1.7492    0.9285 N.am      1 <0>        -0.4905
      5 C4          0.9984   -3.0525    0.6631 C.2       1 <0>         0.2947
      6 N2          1.0196   -4.1084    1.4572 N.2       1 <0>        -0.4825
      7 C5          0.6105   -5.2936    1.0358 C.2       1 <0>         0.1223
      8 C6          0.1557   -5.4290   -0.2492 C.2       1 <0>        -0.1896
      9 S1          0.3350   -3.7516   -0.8423 S.3       1 <0>         0.0669
     10 C7          0.6442   -6.4643    1.9454 C.ar      1 <0>        -0.0395
     11 C8          0.2178   -7.7127    1.4950 C.ar      1 <0>        -0.1001
     12 C9          0.2519   -8.7987    2.3458 C.ar      1 <0>        -0.1192
     13 C10         0.7080   -8.6502    3.6433 C.ar      1 <0>        -0.1049
     14 C11         1.1319   -7.4136    4.0959 C.ar      1 <0>        -0.1238
     15 C12         1.1077   -6.3217    3.2523 C.ar      1 <0>        -0.0817
     16 C13         1.8636   -1.4228    2.1444 C.2       1 <0>         0.5326
     17 O1          1.8790   -2.2509    3.0344 O.2       1 <0>        -0.4039
     18 C14         2.3716   -0.0613    2.3952 C.2       1 <0>         0.1312
     19 C15         3.6067    0.3449    1.9287 C.ar      1 <0>        -0.1578
     20 C16         4.4603   -0.5641    1.1654 C.ar      1 <0>        -0.0057
     21 C17         5.6646   -0.1185    0.7284 C.ar      1 <0>        -0.1469
     22 C18         6.1012    1.1846    0.9933 C.ar      1 <0>         0.0949
     23 C19         5.3598    2.0770    1.6948 C.ar      1 <0>        -0.2220
     24 C20         4.0903    1.7155    2.1944 C.ar      1 <0>         0.3716
     25 N3          3.3707    2.5938    2.8798 N.am      1 <0>        -0.5876
     26 C21         2.1719    2.3229    3.3792 C.2       1 <0>         0.5223
     27 O2          1.5647    3.1744    3.9989 O.2       1 <0>        -0.4128
     28 C22         1.5582    0.9569    3.1712 C.3       1 <0>        -0.1607
     29 H1          0.8657    1.8566    0.2053 H         1 <0>         0.0942
     30 H2         -1.0045    1.8350    0.1743 H         1 <0>         0.1231
     31 H3         -0.9714   -0.5539    0.0675 H         1 <0>         0.1339
     32 H4          1.3048   -1.1976   -1.0935 H         1 <0>         0.1231
     33 H5          2.0875   -0.0152   -0.0175 H         1 <0>         0.0979
     34 H6         -0.2127   -6.3055   -0.7613 H         1 <0>         0.2101
     35 H7         -0.1388   -7.8298    0.4823 H         1 <0>         0.1257
     36 H8         -0.0785   -9.7664    1.9981 H         1 <0>         0.1297
     37 H9          0.7329   -9.5029    4.3057 H         1 <0>         0.1269
     38 H10         1.4863   -7.3034    5.1101 H         1 <0>         0.1263
     39 H11         1.4435   -5.3578    3.6052 H         1 <0>         0.1326
     40 H12         4.1377   -1.5728    0.9535 H         1 <0>         0.1663
     41 H13         6.3009   -0.7840    0.1639 H         1 <0>         0.1703
     42 H14         7.0684    1.4918    0.6240 H         1 <0>         0.1736
     43 H15         5.7431    3.0710    1.8722 H         1 <0>         0.1779
     44 H16         0.6067    1.0880    2.6558 H         1 <0>         0.1823
     45 H17         1.3464    0.5367    4.1544 H         1 <0>         0.1904
     46 H18         3.7398    3.4793    3.0234 H         1 <0>         0.4446
@<TRIPOS>BOND
     1    1    2 2
     2    1   29 1
     3    1   30 1
     4    2    3 1
     5    2   31 1
     6    3    4 1
     7    3   32 1
     8    3   33 1
     9    4    5 1
    10    4   16 am
    11    5    9 1
    12    5    6 2
    13    6    7 1
    14    7    8 2
    15    7   10 1
    16    8    9 1
    17    8   34 1
    18   10   15 ar
    19   10   11 ar
    20   11   12 ar
    21   11   35 1
    22   12   13 ar
    23   12   36 1
    24   13   14 ar
    25   13   37 1
    26   14   15 ar
    27   14   38 1
    28   15   39 1
    29   16   17 2
    30   16   18 1
    31   18   28 1
    32   18   19 2
    33   19   24 ar
    34   19   20 ar
    35   20   21 ar
    36   20   40 1
    37   21   22 ar
    38   21   41 1
    39   22   23 ar
    40   22   42 1
    41   23   24 ar
    42   23   43 1
    43   24   25 2
    44   25   26 am
    45   25   46 1
    46   26   27 2
    47   26   28 1
    48   28   44 1
    49   28   45 1
@<TRIPOS>MOLECULE
ZINC66399447
   49    51     0     0     0
SMALL
USER_CHARGES

@<TRIPOS>ATOM
      1 C1         -0.0187    1.5258    0.0104 C.3       1 <0>        -0.1801
      2 C2          0.0021   -0.0041    0.0020 C.3       1 <0>         0.1322
      3 H1         -1.0205   -0.3814    0.0098 H         1 <0>         0.1501
      4 C3          0.7309   -0.5033    1.2229 C.2       1 <0>         0.1169
      5 N1          2.0196   -0.4831    1.4153 N.2       1 <0>        -0.2487
      6 N2          2.3037   -0.9862    2.5632 N.2       1 <0>        -0.2728
      7 C4          1.2024   -1.3591    3.1731 C.2       1 <0>         0.2022
      8 N3          0.1614   -1.0570    2.3387 N.pl3     1 <0>        -0.3986
      9 C5         -1.2045   -1.2726    2.5751 C.ar      1 <0>         0.0786
     10 C6         -2.0702   -0.1928    2.6829 C.ar      1 <0>        -0.0890
     11 C7         -3.4147   -0.4075    2.9151 C.ar      1 <0>        -0.0928
     12 C8         -3.8988   -1.6977    3.0409 C.ar      1 <0>        -0.0114
     13 C9         -3.0377   -2.7757    2.9338 C.ar      1 <0>        -0.0903
     14 C10        -1.6934   -2.5661    2.6959 C.ar      1 <0>        -0.0796
     15 Cl1        -5.5890   -1.9645    3.3339 Cl        1 <0>        -0.0335
     16 S1          1.0867   -2.1008    4.7671 S.3       1 <0>         0.0281
     17 C11         2.8091   -2.2114    5.3257 C.3       1 <0>        -0.0952
     18 C12         2.8542   -2.8464    6.7170 C.3       1 <0>        -0.0526
     19 C13         4.2851   -2.9383    7.1810 C.ar      1 <0>         0.1259
     20 C14         4.6472   -2.3815    8.3932 C.ar      1 <0>        -0.1634
     21 C15         5.9660   -2.4715    8.8108 C.ar      1 <0>        -0.0700
     22 C16         6.8754   -3.1211    7.9899 C.ar      1 <0>        -0.1693
     23 C17         6.4400   -3.6534    6.7913 C.ar      1 <0>         0.1050
     24 N4          5.1760   -3.5535    6.4284 N.ar      1 <0>        -0.4819
     25 N5          0.6897   -0.4778   -1.2066 N.4       1 <0>        -0.3811
     26 C18         0.7096   -1.9467   -1.2147 C.3       1 <0>        -0.0480
     27 C19        -0.0208    0.0088   -2.3967 C.3       1 <0>        -0.0519
     28 H2          1.0039    1.9031    0.0027 H         1 <0>         0.0952
     29 H3         -0.5459    1.8868   -0.8726 H         1 <0>         0.1002
     30 H4         -0.5289    1.8773    0.9072 H         1 <0>         0.1052
     31 H5         -1.6927    0.8143    2.5855 H         1 <0>         0.1415
     32 H6         -4.0886    0.4323    2.9991 H         1 <0>         0.1538
     33 H7         -3.4178   -3.7818    3.0323 H         1 <0>         0.1546
     34 H8         -1.0224   -3.4078    2.6083 H         1 <0>         0.1456
     35 H9          3.3787   -2.8248    4.6276 H         1 <0>         0.1132
     36 H10         3.2421   -1.2120    5.3682 H         1 <0>         0.0998
     37 H11         2.2846   -2.2330    7.4150 H         1 <0>         0.0937
     38 H12         2.4212   -3.8458    6.6744 H         1 <0>         0.0970
     39 H13         3.9121   -1.8823    9.0071 H         1 <0>         0.1374
     40 H14         6.2778   -2.0455    9.7530 H         1 <0>         0.1391
     41 H15         7.9110   -3.2096    8.2834 H         1 <0>         0.1392
     42 H16         7.1420   -4.1608    6.1463 H         1 <0>         0.1595
     43 H17         1.2198   -2.2982   -2.1115 H         1 <0>         0.1336
     44 H18         1.2368   -2.3077   -0.3316 H         1 <0>         0.1159
     45 H19        -0.3130   -2.3239   -1.2069 H         1 <0>         0.1222
     46 H20        -0.0356    1.0987   -2.3907 H         1 <0>         0.1302
     47 H21         0.4894   -0.3427   -3.2935 H         1 <0>         0.1331
     48 H22        -1.0434   -0.3685   -2.3890 H         1 <0>         0.1250
     49 H23         1.6363   -0.1286   -1.2138 H         1 <0>         0.4362
@<TRIPOS>BOND
     1    1    2 1
     2    1   28 1
     3    1   29 1
     4    1   30 1
     5    2    3 1
     6    2    4 1
     7    2   25 1
     8    4    8 1
     9    4    5 2
    10    5    6 1
    11    6    7 2
    12    7    8 1
    13    7   16 1
    14    8    9 1
    15    9   14 ar
    16    9   10 ar
    17   10   11 ar
    18   10   31 1
    19   11   12 ar
    20   11   32 1
    21   12   13 ar
    22   12   15 1
    23   13   14 ar
    24   13   33 1
    25   14   34 1
    26   16   17 1
    27   17   18 1
    28   17   35 1
    29   17   36 1
    30   18   19 1
    31   18   37 1
    32   18   38 1
    33   19   24 ar
    34   19   20 ar
    35   20   21 ar
    36   20   39 1
    37   21   22 ar
    38   21   40 1
    39   22   23 ar
    40   22   41 1
    41   23   24 ar
    42   23   42 1
    43   25   26 1
    44   25   27 1
    45   25   49 1
    46   26   43 1
    47   26   44 1
    48   26   45 1
    49   27   46 1
    50   27   47 1
    51   27   48 1
@<TRIPOS>MOLECULE
ZINC11201733
   51    53     0     0     0
SMALL
USER_CHARGES
1-[4-(difluoromethylsulfanyl)benzoyl]-N,N-diethyl-indoline-5-sulfonamide
@<TRIPOS>ATOM
      1 C1          2.2084    5.8162    3.3586 C.3       1 <0>        -0.1755
      2 C2          1.8253    4.3405    3.2309 C.3       1 <0>         0.1202
      3 N1          0.7890    4.1919    2.2061 N.pl3     1 <0>        -0.9961
      4 C3         -0.6206    4.3824    2.5569 C.3       1 <0>         0.1085
      5 C4         -1.1891    3.0751    3.1124 C.3       1 <0>        -0.1781
      6 S1          1.2109    3.8086    0.6513 S.o2      1 <0>         2.6924
      7 O1          2.5572    4.2298    0.4802 O.2       1 <0>        -0.9533
      8 O2          0.1563    4.2709   -0.1814 O.2       1 <0>        -0.9544
      9 C5          1.2140    2.0507    0.5307 C.ar      1 <0>        -0.6982
     10 C6          0.0617    1.3788    0.1653 C.ar      1 <0>         0.0072
     11 C7          0.0609    0.0038    0.0696 C.ar      1 <0>        -0.1503
     12 C8          1.2231   -0.7216    0.3406 C.ar      1 <0>         0.2022
     13 C9          2.3724   -0.0389    0.7059 C.ar      1 <0>        -0.1566
     14 C10         2.3683    1.3397    0.8005 C.ar      1 <0>         0.0229
     15 C11         3.4758   -1.0457    0.9411 C.3       1 <0>        -0.0863
     16 C12         2.8207   -2.4089    0.6653 C.3       1 <0>         0.0915
     17 N2          1.4343   -2.1026    0.3031 N.am      1 <0>        -0.5520
     18 C13         0.4996   -3.0185   -0.0193 C.2       1 <0>         0.5749
     19 O3         -0.6507   -2.6726   -0.2093 O.2       1 <0>        -0.4970
     20 C14         0.8718   -4.4400   -0.1418 C.ar      1 <0>        -0.1310
     21 C15         2.0684   -4.7993   -0.7702 C.ar      1 <0>        -0.0665
     22 C16         2.4145   -6.1214   -0.8774 C.ar      1 <0>        -0.1255
     23 C17         1.5702   -7.1071   -0.3715 C.ar      1 <0>        -0.0673
     24 C18         0.3749   -6.7526    0.2498 C.ar      1 <0>        -0.0928
     25 C19         0.0262   -5.4318    0.3651 C.ar      1 <0>        -0.0416
     26 S2          2.0153   -8.8058   -0.5172 S.3       1 <0>        -0.0796
     27 C20         3.6129   -8.7687   -1.3756 C.3       1 <0>         0.2700
     28 F1          3.4577   -8.1555   -2.6235 F         1 <0>        -0.1783
     29 F2          4.5357   -8.0457   -0.6123 F         1 <0>        -0.1787
     30 H1          1.3305    6.3962    3.6430 H         1 <0>         0.0601
     31 H2          2.9795    5.9268    4.1210 H         1 <0>         0.0696
     32 H3          2.5883    6.1770    2.4027 H         1 <0>         0.0641
     33 H4          1.4455    3.9797    4.1867 H         1 <0>         0.0806
     34 H5          2.7033    3.7605    2.9465 H         1 <0>         0.0807
     35 H6         -0.7048    5.1648    3.3111 H         1 <0>         0.0861
     36 H7         -1.1801    4.6731    1.6678 H         1 <0>         0.0944
     37 H8         -2.2379    3.2169    3.3734 H         1 <0>         0.0711
     38 H9         -1.1049    2.2927    2.3582 H         1 <0>         0.0563
     39 H10        -0.6296    2.7844    4.0015 H         1 <0>         0.0608
     40 H11        -0.8395    1.9338   -0.0501 H         1 <0>         0.1460
     41 H12        -0.8422   -0.5148   -0.2165 H         1 <0>         0.1493
     42 H13         3.2691    1.8628    1.0855 H         1 <0>         0.1435
     43 H14         3.8249   -0.9932    1.9724 H         1 <0>         0.0986
     44 H15         4.3011   -0.8736    0.2502 H         1 <0>         0.0990
     45 H16         2.8493   -3.0302    1.5604 H         1 <0>         0.0923
     46 H17         3.3252   -2.9107   -0.1605 H         1 <0>         0.0928
     47 H18         2.7213   -4.0357   -1.1666 H         1 <0>         0.1389
     48 H19         3.3406   -6.3993   -1.3586 H         1 <0>         0.1356
     49 H20        -0.2779   -7.5190    0.6408 H         1 <0>         0.1428
     50 H21        -0.9005   -5.1575    0.8472 H         1 <0>         0.1437
     51 H22         3.9747   -9.7876   -1.5139 H         1 <0>         0.1629
@<TRIPOS>BOND
     1    1    2 1
     2    1   30 1
     3    1   31 1
     4    1   32 1
     5    2    3 1
     6    2   33 1
     7    2   34 1
     8    3    4 1
     9    3    6 1
    10    4    5 1
    11    4   35 1
    12    4   36 1
    13    5   37 1
    14    5   38 1
    15    5   39 1
    16    6    7 2
    17    6    8 2
    18    6    9 1
    19    9   14 ar
    20    9   10 ar
    21   10   11 ar
    22   10   40 1
    23   11   12 ar
    24   11   41 1
    25   12   17 1
    26   12   13 ar
    27   13   14 ar
    28   13   15 1
    29   14   42 1
    30   15   16 1
    31   15   43 1
    32   15   44 1
    33   16   17 1
    34   16   45 1
    35   16   46 1
    36   17   18 am
    37   18   19 2
    38   18   20 1
    39   20   25 ar
    40   20   21 ar
    41   21   22 ar
    42   21   47 1
    43   22   23 ar
    44   22   48 1
    45   23   24 ar
    46   23   26 1
    47   24   25 ar
    48   24   49 1
    49   25   50 1
    50   26   27 1
    51   27   28 1
    52   27   29 1
    53   27   51 1
@<TRIPOS>MOLECULE
ZINC14129426
   49    51     0     0     0
SMALL
USER_CHARGES
[2-(2,5-dimethyl-1-phenethyl-pyrrol-3-yl)-2-oxo-ethyl] 5-bromopyridine-3-carboxylate
@<TRIPOS>ATOM
      1 C1          7.8865   10.3971   -0.0196 C.3       1 <0>        -0.0877
      2 C2          6.3910   10.2115   -0.0061 C.2       1 <0>         0.0136
      3 C3          5.7531    9.0290    0.0003 C.2       1 <0>        -0.1543
      4 C4          4.3162    9.3342    0.0098 C.2       1 <0>        -0.2698
      5 C5          4.2226   10.7132    0.0182 C.2       1 <0>         0.1235
      6 N1          5.4691   11.2180    0.0085 N.pl3     1 <0>        -0.4306
      7 C6          5.7920   12.6469    0.0125 C.3       1 <0>         0.1003
      8 C7          5.9186   13.1371    1.4563 C.3       1 <0>        -0.0933
      9 C8          6.2508   14.6070    1.4605 C.ar      1 <0>        -0.0886
     10 C9          7.5709   15.0173    1.4553 C.ar      1 <0>        -0.1139
     11 C10         7.8755   16.3657    1.4537 C.ar      1 <0>        -0.1169
     12 C11         6.8602   17.3037    1.4684 C.ar      1 <0>        -0.1184
     13 C12         5.5402   16.8934    1.4794 C.ar      1 <0>        -0.1165
     14 C13         5.2355   15.5450    1.4752 C.ar      1 <0>        -0.1139
     15 C14         2.9452   11.5125    0.0356 C.3       1 <0>        -0.0998
     16 C15         3.2101    8.3744    0.0156 C.2       1 <0>         0.4294
     17 O1          2.0632    8.7705    0.0292 O.2       1 <0>        -0.4483
     18 C16         3.4962    6.8948    0.0048 C.3       1 <0>         0.0439
     19 O2          2.2441    6.1596    0.0133 O.3       1 <0>        -0.3329
     20 C17         2.3244    4.8150    0.0053 C.2       1 <0>         0.5181
     21 O3          3.4107    4.2715   -0.0084 O.2       1 <0>        -0.4951
     22 C18         1.0915    4.0014    0.0132 C.ar      1 <0>        -0.1735
     23 C19         1.1613    2.6025    0.0049 C.ar      1 <0>         0.0187
     24 C20        -0.0236    1.8867    0.0124 C.ar      1 <0>        -0.1630
     25 C21        -1.2276    2.5701    0.0218 C.ar      1 <0>         0.1691
     26 N2         -1.2621    3.8888    0.0347 N.ar      1 <0>        -0.4774
     27 C22        -0.1627    4.6137    0.0285 C.ar      1 <0>         0.1777
     28 Br1         0.0021   -0.0041    0.0020 Br        1 <0>        -0.0142
     29 H1          8.2570   10.4361    1.0047 H         1 <0>         0.0736
     30 H2          8.3516    9.5615   -0.5427 H         1 <0>         0.0833
     31 H3          8.1325   11.3279   -0.5306 H         1 <0>         0.0648
     32 H4          6.2067    8.0489   -0.0035 H         1 <0>         0.1492
     33 H5          6.7351   12.8078   -0.5098 H         1 <0>         0.0969
     34 H6          4.9990   13.2000   -0.4908 H         1 <0>         0.0958
     35 H7          4.9755   12.9763    1.9786 H         1 <0>         0.0812
     36 H8          6.7116   12.5840    1.9596 H         1 <0>         0.0818
     37 H9          8.3641   14.2845    1.4483 H         1 <0>         0.1221
     38 H10         8.9068   16.6863    1.4449 H         1 <0>         0.1241
     39 H11         7.0983   18.3571    1.4710 H         1 <0>         0.1235
     40 H12         4.7470   17.6262    1.4909 H         1 <0>         0.1243
     41 H13         4.2042   15.2245    1.4837 H         1 <0>         0.1225
     42 H14         2.6476   11.6994    1.0674 H         1 <0>         0.0820
     43 H15         3.1041   12.4627   -0.4744 H         1 <0>         0.0673
     44 H16         2.1599   10.9538   -0.4735 H         1 <0>         0.1005
     45 H17         4.0304    6.6527    0.8147 H         1 <0>         0.0938
     46 H18         4.0608    6.6405   -0.8922 H         1 <0>         0.1066
     47 H19         2.1148    2.0955   -0.0066 H         1 <0>         0.1612
     48 H20        -2.1538    2.0145    0.0227 H         1 <0>         0.1754
     49 H21        -0.2321    5.6914    0.0350 H         1 <0>         0.1837
@<TRIPOS>BOND
     1    1    2 1
     2    1   29 1
     3    1   30 1
     4    1   31 1
     5    2    6 1
     6    2    3 2
     7    3    4 1
     8    3   32 1
     9    4    5 2
    10    4   16 1
    11    5    6 1
    12    5   15 1
    13    6    7 1
    14    7    8 1
    15    7   33 1
    16    7   34 1
    17    8    9 1
    18    8   35 1
    19    8   36 1
    20    9   14 ar
    21    9   10 ar
    22   10   11 ar
    23   10   37 1
    24   11   12 ar
    25   11   38 1
    26   12   13 ar
    27   12   39 1
    28   13   14 ar
    29   13   40 1
    30   14   41 1
    31   15   42 1
    32   15   43 1
    33   15   44 1
    34   16   17 2
    35   16   18 1
    36   18   19 1
    37   18   45 1
    38   18   46 1
    39   19   20 1
    40   20   21 2
    41   20   22 1
    42   22   27 ar
    43   22   23 ar
    44   23   24 ar
    45   23   47 1
    46   24   25 ar
    47   24   28 1
    48   25   26 ar
    49   25   48 1
    50   26   27 ar
    51   27   49 1
@<TRIPOS>MOLECULE
ZINC27345134
   53    56     0     0     0
SMALL
USER_CHARGES
(5E)-3-[2-(4-methoxyphenyl)ethyl]-5-[[5-(1-piperidyl)-2-furyl]methylene]-2-thioxo-thiazolidin-4-one
@<TRIPOS>ATOM
      1 C1         -3.7455    1.8642   -1.4256 C.3       1 <0>         0.0233
      2 O1         -2.5619    1.1065   -1.1666 O.3       1 <0>        -0.3168
      3 C2         -1.4108    1.8046   -0.9809 C.ar      1 <0>         0.1288
      4 C3         -0.2243    1.1327   -0.7253 C.ar      1 <0>        -0.1490
      5 C4          0.9455    1.8443   -0.5420 C.ar      1 <0>        -0.0674
      6 C5          0.9334    3.2254   -0.6080 C.ar      1 <0>        -0.1213
      7 C6         -0.2488    3.8976   -0.8574 C.ar      1 <0>        -0.0704
      8 C7         -1.4211    3.1905   -1.0418 C.ar      1 <0>        -0.2073
      9 C8          2.2109    3.9992   -0.4072 C.3       1 <0>        -0.0835
     10 C9          2.9055    4.1957   -1.7562 C.3       1 <0>         0.0902
     11 N1          4.1474    4.9480   -1.5610 N.am      1 <0>        -0.5206
     12 C10         4.1276    6.2676   -1.6306 C.2       1 <0>         0.5306
     13 O2          3.0906    6.8675   -1.8548 O.2       1 <0>        -0.4449
     14 C11         5.3494    6.9688   -1.4312 C.2       1 <0>        -0.2873
     15 C12         5.5946    8.3246   -1.4483 C.2       1 <0>         0.1421
     16 C13         4.5234    9.2322   -1.5402 C.2       1 <0>        -0.0763
     17 C14         4.6285   10.6090   -1.6443 C.2       1 <0>        -0.0846
     18 C15         3.3246   11.1069   -1.7093 C.2       1 <0>        -0.2493
     19 C16         2.4800   10.0368   -1.6440 C.2       1 <0>         0.2359
     20 O3          3.2090    8.9138   -1.5484 O.3       1 <0>        -0.1282
     21 N2          1.1009   10.0988   -1.6763 N.pl3     1 <0>        -0.4369
     22 C17         0.5887   10.9769   -0.6166 C.3       1 <0>         0.0533
     23 C18        -0.9253   11.1370   -0.7724 C.3       1 <0>        -0.1199
     24 C19        -1.5907    9.7606   -0.6865 C.3       1 <0>        -0.1275
     25 C20        -1.0048    8.8507   -1.7697 C.3       1 <0>        -0.1200
     26 C21         0.5115    8.7569   -1.5851 C.3       1 <0>         0.0487
     27 S1          6.4812    5.6121   -1.1598 S.3       1 <0>         0.0670
     28 C22         5.2986    4.2824   -1.3176 C.2       1 <0>         0.2833
     29 S2          5.5573    2.5947   -1.1925 S.2       1 <0>        -0.3481
     30 H1         -4.5974    1.1805   -1.5553 H         1 <0>         0.1029
     31 H2         -3.6082    2.4570   -2.3420 H         1 <0>         0.0567
     32 H3         -3.9419    2.5383   -0.5788 H         1 <0>         0.0565
     33 H4         -0.2143    0.0539   -0.6740 H         1 <0>         0.1330
     34 H5          1.8703    1.3215   -0.3474 H         1 <0>         0.1346
     35 H6         -0.2556    4.9764   -0.9084 H         1 <0>         0.1228
     36 H7         -2.3442    3.7160   -1.2373 H         1 <0>         0.1283
     37 H8          1.9798    4.9806    0.0327 H         1 <0>         0.0751
     38 H9          2.8750    3.4414    0.2694 H         1 <0>         0.0832
     39 H10         3.1366    3.2143   -2.1960 H         1 <0>         0.1135
     40 H11         2.2414    4.7535   -2.4328 H         1 <0>         0.1048
     41 H12         6.6279    8.6974   -1.3901 H         1 <0>         0.1844
     42 H13         5.5411   11.1859   -1.6704 H         1 <0>         0.1653
     43 H14         3.0384   12.1447   -1.7956 H         1 <0>         0.1588
     44 H15         0.8110   10.5344    0.3656 H         1 <0>         0.0525
     45 H16         1.0709   11.9627   -0.6922 H         1 <0>         0.0918
     46 H17        -1.3102   11.7830    0.0304 H         1 <0>         0.0799
     47 H18        -1.1473   11.5933   -1.7484 H         1 <0>         0.0780
     48 H19        -1.4021    9.3234    0.3051 H         1 <0>         0.0627
     49 H20        -2.6747    9.8671   -0.8400 H         1 <0>         0.0723
     50 H21        -1.4489    7.8478   -1.6857 H         1 <0>         0.0757
     51 H22        -1.2299    9.2695   -2.7616 H         1 <0>         0.0755
     52 H23         0.9371    8.1153   -2.3708 H         1 <0>         0.0957
     53 H24         0.7343    8.3248   -0.5983 H         1 <0>         0.0521
@<TRIPOS>BOND
     1    1    2 1
     2    1   30 1
     3    1   31 1
     4    1   32 1
     5    2    3 1
     6    3    8 ar
     7    3    4 ar
     8    4    5 ar
     9    4   33 1
    10    5    6 ar
    11    5   34 1
    12    6    7 ar
    13    6    9 1
    14    7    8 ar
    15    7   35 1
    16    8   36 1
    17    9   10 1
    18    9   37 1
    19    9   38 1
    20   10   11 1
    21   10   39 1
    22   10   40 1
    23   11   28 1
    24   11   12 am
    25   12   13 2
    26   12   14 1
    27   14   15 2
    28   14   27 1
    29   15   16 1
    30   15   41 1
    31   16   20 1
    32   16   17 2
    33   17   18 1
    34   17   42 1
    35   18   19 2
    36   18   43 1
    37   19   20 1
    38   19   21 1
    39   21   26 1
    40   21   22 1
    41   22   23 1
    42   22   44 1
    43   22   45 1
    44   23   24 1
    45   23   46 1
    46   23   47 1
    47   24   25 1
    48   24   48 1
    49   24   49 1
    50   25   26 1
    51   25   50 1
    52   25   51 1
    53   26   52 1
    54   26   53 1
    55   27   28 1
    56   28   29 2
@<TRIPOS>MOLECULE
ZINC39572271
   54    56     0     0     0
SMALL
USER_CHARGES

@<TRIPOS>ATOM
      1 C1         -0.0184    1.5028    0.0103 C.3       1 <0>        -0.0707
      2 C2          0.0021   -0.0041    0.0020 C.2       1 <0>        -0.1822
      3 C3         -1.0420   -0.8547    0.0019 C.2       1 <0>        -0.1203
      4 C4         -0.7072   -2.2603   -0.0080 C.2       1 <0>        -0.2365
      5 C5          0.6371   -2.5785   -0.0162 C.2       1 <0>        -0.1350
      6 S1          1.4115   -1.0902   -0.0179 S.3       1 <0>         0.1810
      7 C6          1.2643   -3.9487   -0.0269 C.3       1 <0>        -0.0841
      8 C7         -1.7414   -3.2960   -0.0088 C.2       1 <0>         0.4173
      9 O1         -1.4265   -4.4679   -0.0168 O.2       1 <0>        -0.4564
     10 C8         -3.1973   -2.9069    0.0003 C.3       1 <0>        -0.1525
     11 C9         -4.0624   -4.1689   -0.0025 C.3       1 <0>        -0.1027
     12 C10        -5.5183   -3.7799    0.0066 C.2       1 <0>         0.4660
     13 O2         -5.8318   -2.6130    0.0146 O.2       1 <0>        -0.5046
     14 O3         -6.4668   -4.7297    0.0059 O.3       1 <0>        -0.3278
     15 C11        -7.8261   -4.2891    0.0148 C.3       1 <0>         0.0514
     16 C12        -8.7421   -5.4857    0.0126 C.2       1 <0>         0.5338
     17 O4         -8.2766   -6.6058    0.0042 O.2       1 <0>        -0.4986
     18 N1        -10.0786   -5.3114    0.0200 N.am      1 <0>        -0.5640
     19 C13       -10.9895   -6.4675    0.0241 C.3       1 <0>         0.1198
     20 C14       -11.3337   -6.8951   -1.3788 C.3       1 <0>        -0.1393
     21 C15       -12.1709   -5.9074   -2.1747 C.3       1 <0>        -0.0616
     22 H1        -13.0292   -5.5984   -1.5781 H         1 <0>         0.0909
     23 S2        -11.1785   -4.4472   -2.6032 S.3       1 <0>        -0.1491
     24 C16       -11.2303   -3.4861   -1.1081 C.ar      1 <0>        -0.1006
     25 C17       -10.6334   -4.0277    0.0297 C.ar      1 <0>         0.1416
     26 C18       -10.6071   -3.2765    1.1998 C.ar      1 <0>        -0.1197
     27 C19       -11.1999   -2.0280    1.2294 C.ar      1 <0>        -0.0908
     28 C20       -11.8222   -1.5124    0.1076 C.ar      1 <0>        -0.1111
     29 C21       -11.8358   -2.2472   -1.0836 C.ar      1 <0>        -0.0625
     30 C22       -12.6614   -6.5781   -3.4594 C.3       1 <0>        -0.1337
     31 H2          1.0042    1.8801    0.0026 H         1 <0>         0.0733
     32 H3         -0.5455    1.8639   -0.8728 H         1 <0>         0.0810
     33 H4         -0.5286    1.8543    0.9071 H         1 <0>         0.0811
     34 H5         -2.0648   -0.5082    0.0091 H         1 <0>         0.1476
     35 H6          1.4105   -4.2733   -1.0571 H         1 <0>         0.0854
     36 H7          2.2272   -3.9115    0.4825 H         1 <0>         0.0741
     37 H8          0.6087   -4.6524    0.4861 H         1 <0>         0.1014
     38 H9         -3.4114   -2.3217    0.8946 H         1 <0>         0.1084
     39 H10        -3.4199   -2.3118   -0.8853 H         1 <0>         0.1087
     40 H11        -3.8483   -4.7542   -0.8968 H         1 <0>         0.1163
     41 H12        -3.8398   -4.7640    0.8831 H         1 <0>         0.1160
     42 H13        -8.0091   -3.6932    0.9090 H         1 <0>         0.0995
     43 H14        -8.0176   -3.6833   -0.8709 H         1 <0>         0.1018
     44 H15       -10.5107   -7.2977    0.5433 H         1 <0>         0.1009
     45 H16       -11.9053   -6.1988    0.5505 H         1 <0>         0.0812
     46 H17       -10.4044   -7.0707   -1.9208 H         1 <0>         0.0809
     47 H18       -11.8767   -7.8387   -1.3254 H         1 <0>         0.0883
     48 H19       -10.1249   -3.6677    2.0834 H         1 <0>         0.1322
     49 H20       -11.1770   -1.4483    2.1403 H         1 <0>         0.1344
     50 H21       -12.2973   -0.5434    0.1494 H         1 <0>         0.1365
     51 H22       -12.3145   -1.8548   -1.9686 H         1 <0>         0.1427
     52 H23       -13.2671   -7.4483   -3.2065 H         1 <0>         0.0750
     53 H24       -13.2621   -5.8713   -4.0318 H         1 <0>         0.0700
     54 H25       -11.8045   -6.8926   -4.0551 H         1 <0>         0.0653
@<TRIPOS>BOND
     1    1    2 1
     2    1   31 1
     3    1   32 1
     4    1   33 1
     5    2    6 1
     6    2    3 2
     7    3    4 1
     8    3   34 1
     9    4    5 2
    10    4    8 1
    11    5    6 1
    12    5    7 1
    13    7   35 1
    14    7   36 1
    15    7   37 1
    16    8    9 2
    17    8   10 1
    18   10   11 1
    19   10   38 1
    20   10   39 1
    21   11   12 1
    22   11   40 1
    23   11   41 1
    24   12   13 2
    25   12   14 1
    26   14   15 1
    27   15   16 1
    28   15   42 1
    29   15   43 1
    30   16   17 2
    31   16   18 am
    32   18   25 1
    33   18   19 1
    34   19   20 1
    35   19   44 1
    36   19   45 1
    37   20   21 1
    38   20   46 1
    39   20   47 1
    40   21   22 1
    41   21   23 1
    42   21   30 1
    43   23   24 1
    44   24   29 ar
    45   24   25 ar
    46   25   26 ar
    47   26   27 ar
    48   26   48 1
    49   27   28 ar
    50   27   49 1
    51   28   29 ar
    52   28   50 1
    53   29   51 1
    54   30   52 1
    55   30   53 1
    56   30   54 1
@<TRIPOS>MOLECULE
ZINC59741562
   54    57     0     0     0
SMALL
USER_CHARGES

@<TRIPOS>ATOM
      1 C1          0.0925    3.7442    3.1176 C.3       1 <0>        -0.1306
      2 C2          1.0956    3.0325    2.2076 C.3       1 <0>        -0.0999
      3 H1          1.9173    3.7092    1.9732 H         1 <0>         0.1256
      4 C3          0.4091    2.6154    0.9325 C.2       1 <0>         0.4529
      5 O1         -0.0412    1.4992    0.8261 O.2       1 <0>        -0.4701
      6 O2          0.2978    3.4838   -0.0849 O.3       1 <0>        -0.3499
      7 C4         -0.3648    3.0210   -1.2634 C.3       1 <0>         0.0321
      8 S1          1.7437    1.5645    3.0535 S.3       1 <0>         0.0010
      9 C5          3.0690    1.0291    2.0231 C.ar      1 <0>        -0.0529
     10 C6          3.4509    1.7898    0.9236 C.ar      1 <0>        -0.1418
     11 C7          4.4882    1.3681    0.1186 C.ar      1 <0>        -0.0742
     12 C8          5.1578    0.1864    0.3973 C.ar      1 <0>        -0.1278
     13 C9          4.7943   -0.5809    1.4818 C.ar      1 <0>        -0.0686
     14 C10         3.7492   -0.1652    2.3112 C.ar      1 <0>        -0.1115
     15 C11         3.3590   -0.9783    3.4769 C.2       1 <0>         0.5607
     16 O3          2.2029   -1.3299    3.6135 O.2       1 <0>        -0.5074
     17 N1          4.2836   -1.3322    4.3915 N.am      1 <0>        -0.6070
     18 C12         5.6537   -0.8075    4.3126 C.3       1 <0>         0.1054
     19 C13         6.0147   -0.1675    5.6568 C.3       1 <0>        -0.1224
     20 C14         5.7953   -1.1861    6.7777 C.3       1 <0>         0.0010
     21 C15         4.3207   -1.5938    6.8173 C.3       1 <0>        -0.1220
     22 C16         3.9389   -2.2452    5.4898 C.3       1 <0>         0.1136
     23 C17         6.1818   -0.5709    8.0980 C.2       1 <0>         0.1094
     24 N2          5.6742    0.4843    8.6651 N.2       1 <0>        -0.5051
     25 C18         6.1093    0.9384    9.8585 C.ar      1 <0>         0.0819
     26 C19         5.6832    2.0509   10.6138 C.ar      1 <0>        -0.0606
     27 C20         6.2640    2.3383   11.8109 C.ar      1 <0>        -0.1082
     28 C21         7.2870    1.5563   12.3293 C.ar      1 <0>        -0.0968
     29 C22         7.7315    0.4574   11.6183 C.ar      1 <0>        -0.0642
     30 C23         7.1518    0.1589   10.4091 C.ar      1 <0>        -0.1677
     31 S2          7.3625   -1.0979    9.1754 S.3       1 <0>         0.0803
     32 H2          0.5646    3.9672    4.0744 H         1 <0>         0.0884
     33 H3         -0.2302    4.6727    2.6466 H         1 <0>         0.0878
     34 H4         -0.7714    3.0999    3.2801 H         1 <0>         0.0753
     35 H5         -1.3850    2.7282   -1.0153 H         1 <0>         0.0634
     36 H6         -0.3861    3.8191   -2.0054 H         1 <0>         0.1055
     37 H7          0.1713    2.1627   -1.6683 H         1 <0>         0.0622
     38 H8          2.9345    2.7115    0.6996 H         1 <0>         0.1241
     39 H9          4.7806    1.9620   -0.7347 H         1 <0>         0.1322
     40 H10         5.9687   -0.1344   -0.2398 H         1 <0>         0.1344
     41 H11         5.3194   -1.5006    1.6937 H         1 <0>         0.1349
     42 H12         6.3453   -1.6224    4.0985 H         1 <0>         0.0764
     43 H13         5.7131   -0.0581    3.5234 H         1 <0>         0.0944
     44 H14         7.0604    0.1400    5.6442 H         1 <0>         0.0816
     45 H15         5.3811    0.7030    5.8271 H         1 <0>         0.0827
     46 H16         6.4107   -2.0668    6.5936 H         1 <0>         0.1009
     47 H17         4.1607   -2.3016    7.6307 H         1 <0>         0.0815
     48 H18         3.7031   -0.7100    6.9767 H         1 <0>         0.0822
     49 H19         2.8673   -2.4441    5.4770 H         1 <0>         0.1012
     50 H20         4.4875   -3.1799    5.3738 H         1 <0>         0.0739
     51 H21         4.8896    2.6802   10.2389 H         1 <0>         0.1330
     52 H22         5.9208    3.1957   12.3707 H         1 <0>         0.1352
     53 H23         7.7327    1.8049   13.2810 H         1 <0>         0.1393
     54 H24         8.5264   -0.1603   12.0094 H         1 <0>         0.1345
@<TRIPOS>BOND
     1    1    2 1
     2    1   32 1
     3    1   33 1
     4    1   34 1
     5    2    3 1
     6    2    4 1
     7    2    8 1
     8    4    5 2
     9    4    6 1
    10    6    7 1
    11    7   35 1
    12    7   36 1
    13    7   37 1
    14    8    9 1
    15    9   14 ar
    16    9   10 ar
    17   10   11 ar
    18   10   38 1
    19   11   12 ar
    20   11   39 1
    21   12   13 ar
    22   12   40 1
    23   13   14 ar
    24   13   41 1
    25   14   15 1
    26   15   16 2
    27   15   17 am
    28   17   22 1
    29   17   18 1
    30   18   19 1
    31   18   42 1
    32   18   43 1
    33   19   20 1
    34   19   44 1
    35   19   45 1
    36   20   21 1
    37   20   23 1
    38   20   46 1
    39   21   22 1
    40   21   47 1
    41   21   48 1
    42   22   49 1
    43   22   50 1
    44   23   31 1
    45   23   24 2
    46   24   25 1
    47   25   30 ar
    48   25   26 ar
    49   26   27 ar
    50   26   51 1
    51   27   28 ar
    52   27   52 1
    53   28   29 ar
    54   28   53 1
    55   29   30 ar
    56   29   54 1
    57   30   31 1
@<TRIPOS>MOLECULE
ZINC03000388
   46    48     0     0     0
SMALL
USER_CHARGES
5-[(4-allyloxy-3-methoxy-phenyl)methylene]-3-(o-tolyl)-2-thioxo-thiazolidin-4-one
@<TRIPOS>ATOM
      1 C1          3.0990   -2.3621    2.5257 C.3       1 <0>        -0.1199
      2 C2          3.3862   -3.0214    1.2014 C.ar      1 <0>        -0.0494
      3 C3          4.5135   -3.8054    1.0494 C.ar      1 <0>        -0.1112
      4 C4          4.7775   -4.4110   -0.1651 C.ar      1 <0>        -0.0909
      5 C5          3.9145   -4.2341   -1.2313 C.ar      1 <0>        -0.1139
      6 C6          2.7832   -3.4559   -1.0840 C.ar      1 <0>        -0.0815
      7 C7          2.5181   -2.8420    0.1331 C.ar      1 <0>         0.0884
      8 N1          1.3736   -2.0478    0.2842 N.am      1 <0>        -0.4737
      9 C8          1.4442   -0.7548    0.0160 C.2       1 <0>         0.5443
     10 O1          2.4788   -0.2355   -0.3600 O.2       1 <0>        -0.4471
     11 C9          0.2060    0.0278    0.2002 C.2       1 <0>        -0.2510
     12 C10        -0.0163    1.3533    0.0095 C.2       1 <0>         0.1006
     13 C11        -1.3826    1.8864    0.0815 C.ar      1 <0>        -0.1034
     14 C12        -2.4736    1.0130    0.1688 C.ar      1 <0>        -0.0715
     15 C13        -3.7542    1.5161    0.2362 C.ar      1 <0>        -0.1753
     16 C14        -3.9670    2.8881    0.2177 C.ar      1 <0>         0.1409
     17 C15        -2.8861    3.7647    0.1313 C.ar      1 <0>         0.0995
     18 C16        -1.5984    3.2699    0.0688 C.ar      1 <0>        -0.1301
     19 O2         -3.0998    5.1076    0.1145 O.3       1 <0>        -0.3009
     20 C17        -1.9468    5.9469    0.0245 C.3       1 <0>         0.0219
     21 O3         -5.2324    3.3780    0.2844 O.3       1 <0>        -0.2917
     22 C18        -6.2934    2.4247    0.3717 C.3       1 <0>         0.0819
     23 C19        -7.6141    3.1475    0.4365 C.2       1 <0>        -0.1609
     24 C20        -8.6206    2.7396   -0.2960 C.2       1 <0>        -0.1645
     25 S1         -0.9219   -1.2514    0.7360 S.3       1 <0>         0.0821
     26 C21         0.2232   -2.6207    0.6932 C.2       1 <0>         0.2565
     27 S2         -0.0686   -4.2632    1.0776 S.2       1 <0>        -0.3211
     28 H1          2.4952   -3.0296    3.1405 H         1 <0>         0.0812
     29 H2          4.0379   -2.1479    3.0362 H         1 <0>         0.0792
     30 H3          2.5560   -1.4319    2.3583 H         1 <0>         0.0548
     31 H4          5.1890   -3.9456    1.8803 H         1 <0>         0.1346
     32 H5          5.6596   -5.0231   -0.2816 H         1 <0>         0.1332
     33 H6          4.1236   -4.7082   -2.1789 H         1 <0>         0.1345
     34 H7          2.1075   -3.3215   -1.9157 H         1 <0>         0.1252
     35 H8          0.8112    2.0151   -0.1996 H         1 <0>         0.1643
     36 H9         -2.3112   -0.0547    0.1830 H         1 <0>         0.1341
     37 H10        -4.5949    0.8416    0.3039 H         1 <0>         0.1474
     38 H11        -0.7601    3.9481    0.0063 H         1 <0>         0.1487
     39 H12        -1.4065    5.7247   -0.8957 H         1 <0>         0.0583
     40 H13        -2.2573    6.9917    0.0203 H         1 <0>         0.1055
     41 H14        -1.2969    5.7645    0.8804 H         1 <0>         0.0582
     42 H15        -6.2751    1.7793   -0.5064 H         1 <0>         0.0722
     43 H16        -6.1656    1.8202    1.2697 H         1 <0>         0.0773
     44 H17        -7.7308    4.0018    1.0868 H         1 <0>         0.1220
     45 H18        -8.5039    1.8853   -0.9463 H         1 <0>         0.1007
     46 H19        -9.5672    3.2576   -0.2496 H         1 <0>         0.1104
@<TRIPOS>BOND
     1    1    2 1
     2    1   28 1
     3    1   29 1
     4    1   30 1
     5    2    7 ar
     6    2    3 ar
     7    3    4 ar
     8    3   31 1
     9    4    5 ar
    10    4   32 1
    11    5    6 ar
    12    5   33 1
    13    6    7 ar
    14    6   34 1
    15    7    8 1
    16    8   26 1
    17    8    9 am
    18    9   10 2
    19    9   11 1
    20   11   12 2
    21   11   25 1
    22   12   13 1
    23   12   35 1
    24   13   18 ar
    25   13   14 ar
    26   14   15 ar
    27   14   36 1
    28   15   16 ar
    29   15   37 1
    30   16   17 ar
    31   16   21 1
    32   17   18 ar
    33   17   19 1
    34   18   38 1
    35   19   20 1
    36   20   39 1
    37   20   40 1
    38   20   41 1
    39   21   22 1
    40   22   23 1
    41   22   42 1
    42   22   43 1
    43   23   24 2
    44   23   44 1
    45   24   45 1
    46   24   46 1
    47   25   26 1
    48   26   27 2
@<TRIPOS>MOLECULE
ZINC10615666
   48    51     0     0     0
SMALL
USER_CHARGES
N-benzothiazol-2-yl-3-benzylsulfanyl-N-(2-furylmethyl)propanamide
@<TRIPOS>ATOM
      1 C1         -7.9877    6.7901    1.0591 C.ar      1 <0>        -0.1128
      2 C2         -7.7061    5.6092    1.7202 C.ar      1 <0>        -0.1200
      3 C3         -6.4464    5.3959    2.2479 C.ar      1 <0>        -0.0999
      4 C4         -5.4684    6.3638    2.1150 C.ar      1 <0>        -0.0777
      5 C5         -5.7517    7.5471    1.4589 C.ar      1 <0>        -0.0998
      6 C6         -7.0098    7.7581    0.9266 C.ar      1 <0>        -0.1200
      7 C7         -4.0953    6.1314    2.6908 C.3       1 <0>        -0.0423
      8 S1         -3.0453    5.3314    1.4465 S.3       1 <0>        -0.2439
      9 C8         -1.4504    5.1245    2.2856 C.3       1 <0>        -0.0799
     10 C9         -0.4577    4.4517    1.3355 C.3       1 <0>        -0.1239
     11 C10         0.8673    4.2799    2.0325 C.2       1 <0>         0.5176
     12 O1          1.0041    4.6582    3.1765 O.2       1 <0>        -0.4579
     13 N1          1.9002    3.7057    1.3845 N.am      1 <0>        -0.5091
     14 C11         1.7348    3.2486    0.0025 C.3       1 <0>         0.1846
     15 C12         1.2649    1.8168   -0.0003 C.2       1 <0>        -0.0595
     16 C13        -0.0171    1.4096    0.0098 C.2       1 <0>        -0.1772
     17 C14         0.0021   -0.0041    0.0020 C.2       1 <0>        -0.2160
     18 C15         1.2946   -0.3762   -0.0123 C.2       1 <0>        -0.0189
     19 O2          2.0550    0.7308   -0.0136 O.3       1 <0>        -0.1639
     20 C16         3.1182    3.5477    2.0254 C.2       1 <0>         0.3722
     21 N2          3.4563    3.8894    3.2468 N.2       1 <0>        -0.5071
     22 C17         4.6927    3.6729    3.7453 C.ar      1 <0>         0.1011
     23 C18         5.1827    3.9896    5.0336 C.ar      1 <0>        -0.0657
     24 C19         6.4755    3.6984    5.3820 C.ar      1 <0>        -0.1060
     25 C20         7.3464    3.0871    4.4914 C.ar      1 <0>        -0.1010
     26 C21         6.9011    2.7637    3.2229 C.ar      1 <0>        -0.0617
     27 C22         5.6076    3.0512    2.8651 C.ar      1 <0>        -0.1518
     28 S2          4.6267    2.8196    1.4019 S.3       1 <0>         0.0137
     29 H1         -8.9718    6.9566    0.6464 H         1 <0>         0.1239
     30 H2         -8.4702    4.8530    1.8240 H         1 <0>         0.1249
     31 H3         -6.2264    4.4733    2.7644 H         1 <0>         0.1242
     32 H4         -4.9889    8.3050    1.3589 H         1 <0>         0.1243
     33 H5         -7.2299    8.6809    0.4104 H         1 <0>         0.1250
     34 H6         -4.1730    5.4891    3.5680 H         1 <0>         0.0924
     35 H7         -3.6552    7.0865    2.9777 H         1 <0>         0.0926
     36 H8         -1.5837    4.5033    3.1713 H         1 <0>         0.0924
     37 H9         -1.0659    6.1008    2.5811 H         1 <0>         0.0933
     38 H10        -0.3244    5.0730    0.4498 H         1 <0>         0.1136
     39 H11        -0.8422    3.4755    1.0400 H         1 <0>         0.1135
     40 H12         2.6889    3.3189   -0.5200 H         1 <0>         0.1111
     41 H13         0.9977    3.8739   -0.5013 H         1 <0>         0.1381
     42 H14        -0.8930    2.0414    0.0175 H         1 <0>         0.1544
     43 H15        -0.8563   -0.6594    0.0072 H         1 <0>         0.1536
     44 H16         1.6591   -1.3928   -0.0216 H         1 <0>         0.2070
     45 H17         4.5306    4.4659    5.7507 H         1 <0>         0.1336
     46 H18         6.8247    3.9507    6.3723 H         1 <0>         0.1353
     47 H19         8.3616    2.8658    4.7862 H         1 <0>         0.1398
     48 H20         7.5667    2.2873    2.5184 H         1 <0>         0.1342
@<TRIPOS>BOND
     1    1    6 ar
     2    1    2 ar
     3    1   29 1
     4    2    3 ar
     5    2   30 1
     6    3    4 ar
     7    3   31 1
     8    4    5 ar
     9    4    7 1
    10    5    6 ar
    11    5   32 1
    12    6   33 1
    13    7    8 1
    14    7   34 1
    15    7   35 1
    16    8    9 1
    17    9   10 1
    18    9   36 1
    19    9   37 1
    20   10   11 1
    21   10   38 1
    22   10   39 1
    23   11   12 2
    24   11   13 am
    25   13   14 1
    26   13   20 1
    27   14   15 1
    28   14   40 1
    29   14   41 1
    30   15   19 1
    31   15   16 2
    32   16   17 1
    33   16   42 1
    34   17   18 2
    35   17   43 1
    36   18   19 1
    37   18   44 1
    38   20   28 1
    39   20   21 2
    40   21   22 1
    41   22   27 ar
    42   22   23 ar
    43   23   24 ar
    44   23   45 1
    45   24   25 ar
    46   24   46 1
    47   25   26 ar
    48   25   47 1
    49   26   27 ar
    50   26   48 1
    51   27   28 1
@<TRIPOS>MOLECULE
ZINC32841422
   47    48     0     0     0
SMALL
USER_CHARGES
3-allyl-N-[(4-bromophenyl)methyl]-4,5-dimethoxy-N-methyl-benzamide
@<TRIPOS>ATOM
      1 C1          2.7437    3.0438    2.2550 C.3       1 <0>         0.0341
      2 N1          1.6856    3.8571    1.6506 N.am      1 <0>        -0.6032
      3 C2          1.5375    5.2647    2.0286 C.3       1 <0>         0.1522
      4 C3          0.6015    5.3733    3.2046 C.ar      1 <0>        -0.0948
      5 C4         -0.7557    5.5321    2.9952 C.ar      1 <0>        -0.0881
      6 C5         -1.6152    5.6269    4.0735 C.ar      1 <0>        -0.0937
      7 C6         -1.1159    5.5734    5.3624 C.ar      1 <0>        -0.0857
      8 C7          0.2428    5.4197    5.5715 C.ar      1 <0>        -0.0948
      9 C8          1.1009    5.3197    4.4926 C.ar      1 <0>        -0.1002
     10 Br1        -2.2904    5.7096    6.8381 Br        1 <0>        -0.0497
     11 C9          0.8484    3.3103    0.7469 C.2       1 <0>         0.5631
     12 O1         -0.0872    3.9563    0.3162 O.2       1 <0>        -0.5271
     13 C10         1.0675    1.9272    0.2802 C.ar      1 <0>        -0.0968
     14 C11         2.3630    1.4092    0.2093 C.ar      1 <0>        -0.1221
     15 C12         2.5659    0.1181   -0.2271 C.ar      1 <0>        -0.0641
     16 C13         1.4851   -0.6709   -0.5971 C.ar      1 <0>         0.0956
     17 C14         0.1898   -0.1603   -0.5288 C.ar      1 <0>         0.1065
     18 C15        -0.0205    1.1333   -0.0922 C.ar      1 <0>        -0.1444
     19 O2         -0.8668   -0.9355   -0.8925 O.3       1 <0>        -0.3032
     20 C16        -2.1658   -0.3475   -0.7978 C.3       1 <0>         0.0183
     21 O3          1.6902   -1.9429   -1.0261 O.3       1 <0>        -0.3183
     22 C17         1.7738   -2.1458   -2.4382 C.3       1 <0>         0.0312
     23 C18         3.9641   -0.4390   -0.3024 C.3       1 <0>        -0.0489
     24 C19         4.2488   -1.2506    0.9351 C.2       1 <0>        -0.1562
     25 C20         4.6533   -2.4918    0.8256 C.2       1 <0>        -0.1789
     26 H1          2.6972    2.0220    1.8503 H         1 <0>         0.1119
     27 H2          2.6045    3.0129    3.3457 H         1 <0>         0.0646
     28 H3          3.7238    3.4859    2.0228 H         1 <0>         0.0702
     29 H4          2.5201    5.6760    2.3029 H         1 <0>         0.0938
     30 H5          1.1269    5.8311    1.1797 H         1 <0>         0.0985
     31 H6         -1.1450    5.5780    1.9888 H         1 <0>         0.1385
     32 H7         -2.6760    5.7465    3.9098 H         1 <0>         0.1332
     33 H8          0.6331    5.3775    6.5776 H         1 <0>         0.1335
     34 H9          2.1617    5.1994    4.6557 H         1 <0>         0.1308
     35 H10         3.2055    2.0209    0.4962 H         1 <0>         0.1515
     36 H11        -1.0231    1.5317   -0.0430 H         1 <0>         0.1436
     37 H12        -2.9231   -1.0775   -1.1198 H         1 <0>         0.1067
     38 H13        -2.2143    0.5407   -1.4449 H         1 <0>         0.0599
     39 H14        -2.3599   -0.0531    0.2442 H         1 <0>         0.0591
     40 H15         1.9401   -3.2131   -2.6460 H         1 <0>         0.0979
     41 H16         2.6106   -1.5584   -2.8441 H         1 <0>         0.0463
     42 H17         0.8350   -1.8220   -2.9113 H         1 <0>         0.0504
     43 H18         4.0557   -1.0809   -1.1910 H         1 <0>         0.0821
     44 H19         4.6853    0.3886   -0.3721 H         1 <0>         0.0863
     45 H20         4.1170   -0.8009    1.9303 H         1 <0>         0.1109
     46 H21         4.8611   -3.0843    1.7288 H         1 <0>         0.1006
     47 H22         4.7851   -2.9415   -0.1696 H         1 <0>         0.0989
@<TRIPOS>BOND
     1    1    2 1
     2    1   26 1
     3    1   27 1
     4    1   28 1
     5    2    3 1
     6    2   11 am
     7    3    4 1
     8    3   29 1
     9    3   30 1
    10    4    9 ar
    11    4    5 ar
    12    5    6 ar
    13    5   31 1
    14    6    7 ar
    15    6   32 1
    16    7    8 ar
    17    7   10 1
    18    8    9 ar
    19    8   33 1
    20    9   34 1
    21   11   12 2
    22   11   13 1
    23   13   18 ar
    24   13   14 ar
    25   14   15 ar
    26   14   35 1
    27   15   16 ar
    28   15   23 1
    29   16   17 ar
    30   16   21 1
    31   17   18 ar
    32   17   19 1
    33   18   36 1
    34   19   20 1
    35   20   37 1
    36   20   38 1
    37   20   39 1
    38   21   22 1
    39   22   40 1
    40   22   41 1
    41   22   42 1
    42   23   24 1
    43   23   43 1
    44   23   44 1
    45   24   25 2
    46   24   45 1
    47   25   46 1
    48   25   47 1
@<TRIPOS>MOLECULE
ZINC47621418
   38    40     0     0     0
SMALL
USER_CHARGES

@<TRIPOS>ATOM
      1 C1         -0.0167    1.3780    0.0096 C.ar      1 <0>        -0.1315
      2 C2          1.1709    2.0861    0.0021 C.ar      1 <0>        -0.0511
      3 C3          2.3773    1.4123   -0.0135 C.ar      1 <0>        -0.1255
      4 C4          2.3967    0.0287   -0.0210 C.ar      1 <0>         0.0441
      5 C5          1.2083   -0.6792   -0.0130 C.ar      1 <0>        -0.6579
      6 C6          0.0021   -0.0041    0.0020 C.ar      1 <0>        -0.0091
      7 S1          1.2320   -2.4410   -0.0232 S.o2      1 <0>         2.4917
      8 O1          2.1117   -2.7979    1.0341 O.2       1 <0>        -0.9119
      9 O2         -0.1364   -2.8222    0.0130 O.2       1 <0>        -0.9191
     10 C7          1.9630   -2.8881   -1.6221 C.3       1 <0>        -0.5312
     11 C8          2.0329   -4.3888   -1.7404 C.2       1 <0>         0.0552
     12 C9          3.1173   -5.0848   -1.3128 C.2       1 <0>        -0.1984
     13 S2          2.6155   -6.7520   -1.7091 S.3       1 <0>         0.1797
     14 C10         1.1079   -6.3900   -2.3640 C.2       1 <0>         0.0390
     15 N1          1.0417   -5.0863   -2.2586 N.2       1 <0>        -0.4805
     16 C11         0.0809   -7.3369   -2.9293 C.3       1 <0>         0.1501
     17 O3          0.3157   -7.5150   -4.3276 O.3       1 <0>        -0.3046
     18 C12        -0.5289   -8.3458   -4.9944 C.ar      1 <0>         0.1209
     19 C13        -1.5652   -8.9716   -4.3173 C.ar      1 <0>        -0.1802
     20 C14        -2.4226   -9.8157   -4.9961 C.ar      1 <0>        -0.1105
     21 C15        -2.2477  -10.0374   -6.3515 C.ar      1 <0>         0.0634
     22 C16        -1.2135   -9.4137   -7.0285 C.ar      1 <0>        -0.1116
     23 C17        -0.3586   -8.5640   -6.3535 C.ar      1 <0>        -0.1182
     24 F1         -3.0868  -10.8635   -7.0140 F         1 <0>        -0.1389
     25 Cl1         3.9119   -0.8184   -0.0411 Cl        1 <0>        -0.0437
     26 H1         -0.9592    1.9049    0.0259 H         1 <0>         0.1441
     27 H2          1.1556    3.1659    0.0080 H         1 <0>         0.1448
     28 H3          3.3048    1.9655   -0.0201 H         1 <0>         0.1468
     29 H4         -0.9258   -0.5566    0.0079 H         1 <0>         0.1568
     30 H5          1.3470   -2.4885   -2.4277 H         1 <0>         0.1564
     31 H6          2.9676   -2.4709   -1.6917 H         1 <0>         0.1506
     32 H7          4.0303   -4.7288   -0.8588 H         1 <0>         0.2106
     33 H8          0.1562   -8.2992   -2.4228 H         1 <0>         0.0973
     34 H9         -0.9164   -6.9238   -2.7780 H         1 <0>         0.1036
     35 H10        -1.7014   -8.7994   -3.2598 H         1 <0>         0.1402
     36 H11        -3.2296  -10.3031   -4.4691 H         1 <0>         0.1411
     37 H12        -1.0780   -9.5878   -8.0857 H         1 <0>         0.1447
     38 H13         0.4451   -8.0738   -6.8828 H         1 <0>         0.1427
@<TRIPOS>BOND
     1    1    6 ar
     2    1    2 ar
     3    1   26 1
     4    2    3 ar
     5    2   27 1
     6    3    4 ar
     7    3   28 1
     8    4    5 ar
     9    4   25 1
    10    5    6 ar
    11    5    7 1
    12    6   29 1
    13    7    8 2
    14    7    9 2
    15    7   10 1
    16   10   11 1
    17   10   30 1
    18   10   31 1
    19   11   15 1
    20   11   12 2
    21   12   13 1
    22   12   32 1
    23   13   14 1
    24   14   15 2
    25   14   16 1
    26   16   17 1
    27   16   33 1
    28   16   34 1
    29   17   18 1
    30   18   23 ar
    31   18   19 ar
    32   19   20 ar
    33   19   35 1
    34   20   21 ar
    35   20   36 1
    36   21   22 ar
    37   21   24 1
    38   22   23 ar
    39   22   37 1
    40   23   38 1
@<TRIPOS>MOLECULE
ZINC64714498
   44    46     0     0     0
SMALL
USER_CHARGES

@<TRIPOS>ATOM
      1 C1          0.9154   -2.8743   -2.4439 C.3       1 <0>        -0.1190
      2 C2          0.6774   -2.1155   -1.1638 C.ar      1 <0>        -0.0451
      3 C3          0.6657   -0.7327   -1.1723 C.ar      1 <0>        -0.1557
      4 C4          0.4476   -0.0337    0.0003 C.ar      1 <0>        -0.0746
      5 C5          0.2414   -0.7155    1.1842 C.ar      1 <0>        -0.1526
      6 C6          0.2527   -2.1025    1.1954 C.ar      1 <0>         0.1293
      7 C7          0.4657   -2.8018    0.0160 C.ar      1 <0>        -0.2127
      8 O1          0.0500   -2.7755    2.3585 O.3       1 <0>        -0.2893
      9 C8         -0.0425   -4.1991    2.2768 C.3       1 <0>         0.0475
     10 C9          1.3628   -4.8038    2.3031 C.3       1 <0>        -0.1798
     11 C10        -0.8351   -4.7192    3.4482 C.2       1 <0>         0.3707
     12 O2         -1.0432   -4.0064    4.4006 O.2       1 <0>        -0.3819
     13 C11        -1.3680   -6.1287    3.4312 C.3       1 <0>         0.0690
     14 C12        -0.3702   -7.0376    4.0185 C.1       1 <0>         0.2006
     15 N1          0.3999   -7.7391    4.4717 N.1       1 <0>        -0.3626
     16 C13        -2.6414   -6.1940    4.2346 C.2       1 <0>         0.0211
     17 N2         -3.8344   -6.5489    3.8337 N.2       1 <0>        -0.4718
     18 C14        -4.8670   -6.5570    4.6644 C.2       1 <0>         0.0913
     19 C15        -4.6157   -6.1759    5.9552 C.2       1 <0>        -0.2099
     20 S1         -2.8655   -5.8348    5.8631 S.3       1 <0>         0.1999
     21 C16        -6.2243   -6.9575    4.2189 C.ar      1 <0>        -0.0935
     22 C17        -6.4416   -7.3450    2.8963 C.ar      1 <0>         0.1610
     23 C18        -7.7088   -7.7170    2.4876 C.ar      1 <0>        -0.1665
     24 C19        -8.7598   -7.7056    3.3865 C.ar      1 <0>        -0.0526
     25 C20        -8.5512   -7.3226    4.6989 C.ar      1 <0>        -0.1616
     26 C21        -7.2877   -6.9538    5.1220 C.ar      1 <0>         0.1426
     27 F1         -7.0842   -6.5857    6.4059 F         1 <0>        -0.1230
     28 F2         -5.4161   -7.3562    2.0169 F         1 <0>        -0.1077
     29 H1         -0.0382   -3.0627   -2.9372 H         1 <0>         0.0745
     30 H2          1.5547   -2.2855   -3.1018 H         1 <0>         0.0702
     31 H3          1.4017   -3.8234   -2.2187 H         1 <0>         0.0676
     32 H4          0.8274   -0.1979   -2.0966 H         1 <0>         0.1250
     33 H5          0.4389    1.0462   -0.0090 H         1 <0>         0.1314
     34 H6          0.0718   -0.1690    2.1001 H         1 <0>         0.1319
     35 H7          0.4702   -3.8818    0.0213 H         1 <0>         0.1303
     36 H8         -0.5407   -4.4782    1.3483 H         1 <0>         0.1132
     37 H9          1.9361   -4.4276    1.4558 H         1 <0>         0.0874
     38 H10         1.8610   -4.5248    3.2315 H         1 <0>         0.0788
     39 H11         1.2923   -5.8897    2.2407 H         1 <0>         0.0798
     40 H12        -1.5714   -6.4279    2.4030 H         1 <0>         0.1739
     41 H13        -5.2888   -6.1050    6.7968 H         1 <0>         0.2170
     42 H14        -7.8785   -8.0168    1.4640 H         1 <0>         0.1479
     43 H15        -9.7479   -7.9968    3.0620 H         1 <0>         0.1485
     44 H16        -9.3761   -7.3159    5.3959 H         1 <0>         0.1491
@<TRIPOS>BOND
     1    1    2 1
     2    1   29 1
     3    1   30 1
     4    1   31 1
     5    2    7 ar
     6    2    3 ar
     7    3    4 ar
     8    3   32 1
     9    4    5 ar
    10    4   33 1
    11    5    6 ar
    12    5   34 1
    13    6    7 ar
    14    6    8 1
    15    7   35 1
    16    8    9 1
    17    9   10 1
    18    9   11 1
    19    9   36 1
    20   10   37 1
    21   10   38 1
    22   10   39 1
    23   11   12 2
    24   11   13 1
    25   13   14 1
    26   13   16 1
    27   13   40 1
    28   14   15 3
    29   16   20 1
    30   16   17 2
    31   17   18 1
    32   18   19 2
    33   18   21 1
    34   19   20 1
    35   19   41 1
    36   21   26 ar
    37   21   22 ar
    38   22   23 ar
    39   22   28 1
    40   23   24 ar
    41   23   42 1
    42   24   25 ar
    43   24   43 1
    44   25   26 ar
    45   25   44 1
    46   26   27 1
@<TRIPOS>MOLECULE
ZINC12132501
   48    51     0     0     0
SMALL
USER_CHARGES
3-[(2,4-dichlorophenyl)methylsulfanyl]-4-phenyl-5-(pyrrolidin-1-ylmethyl)-1,2,4-triazole
@<TRIPOS>ATOM
      1 C1         -3.4351   -2.7515    0.9488 C.ar      1 <0>        -0.0870
      2 C2         -2.7228   -2.6107    2.1255 C.ar      1 <0>        -0.0902
      3 C3         -2.1544   -1.3941    2.4489 C.ar      1 <0>        -0.0892
      4 C4         -2.2984   -0.3123    1.5911 C.ar      1 <0>         0.0792
      5 C5         -3.0181   -0.4554    0.4127 C.ar      1 <0>        -0.1191
      6 C6         -3.5802   -1.6757    0.0923 C.ar      1 <0>        -0.0976
      7 N1         -1.7227    0.9244    1.9170 N.pl3     1 <0>        -0.4051
      8 C7         -0.7181    1.5718    1.2479 C.2       1 <0>         0.1037
      9 N2         -0.4815    2.6833    1.8856 N.2       1 <0>        -0.2223
     10 N3         -1.2652    2.7877    2.8988 N.2       1 <0>        -0.2758
     11 C8         -2.0472    1.7354    2.9698 C.2       1 <0>         0.1962
     12 S1         -3.2805    1.4264    4.1897 S.3       1 <0>         0.0546
     13 C9         -3.1031    2.9173    5.2006 C.3       1 <0>        -0.0742
     14 C10        -4.0883    2.8718    6.3400 C.ar      1 <0>        -0.0830
     15 C11        -3.7277    2.2931    7.5426 C.ar      1 <0>        -0.0710
     16 C12        -4.6304    2.2514    8.5882 C.ar      1 <0>        -0.1027
     17 C13        -5.8959    2.7888    8.4319 C.ar      1 <0>        -0.0107
     18 C14        -6.2573    3.3679    7.2289 C.ar      1 <0>        -0.1012
     19 C15        -5.3513    3.4141    6.1843 C.ar      1 <0>        -0.0061
     20 Cl1        -5.8017    4.1466    4.6762 Cl        1 <0>        -0.0446
     21 Cl2        -7.0300    2.7358    9.7452 Cl        1 <0>        -0.0406
     22 C16        -0.0127    1.0858    0.0080 C.3       1 <0>         0.1065
     23 C17        -0.9190    3.0435   -1.1207 C.3       1 <0>        -0.0064
     24 C18        -1.1701    3.4298   -2.6000 C.3       1 <0>        -0.1461
     25 C19        -0.2107    2.4931   -3.3695 C.3       1 <0>        -0.1446
     26 C20         0.0638    1.3213   -2.4089 C.3       1 <0>        -0.0104
     27 H1         -3.8787   -3.7038    0.6979 H         1 <0>         0.1434
     28 H2         -2.6111   -3.4527    2.7926 H         1 <0>         0.1461
     29 H3         -1.5981   -1.2847    3.3682 H         1 <0>         0.1384
     30 H4         -3.1352    0.3856   -0.2546 H         1 <0>         0.1170
     31 H5         -4.1368   -1.7887   -0.8263 H         1 <0>         0.1435
     32 H6         -2.0895    2.9681    5.5983 H         1 <0>         0.1194
     33 H7         -3.2973    3.7973    4.5874 H         1 <0>         0.1188
     34 H8         -2.7399    1.8738    7.6652 H         1 <0>         0.1485
     35 H9         -4.3480    1.7995    9.5276 H         1 <0>         0.1490
     36 H10        -7.2448    3.7878    7.1066 H         1 <0>         0.1518
     37 H11         0.0021   -0.0041    0.0020 H         1 <0>         0.1482
     38 H12         1.0099    1.4631    0.0003 H         1 <0>         0.1649
     39 H13        -1.7845    3.2911   -0.5062 H         1 <0>         0.1279
     40 H14        -0.0233    3.5354   -0.7414 H         1 <0>         0.1446
     41 H15        -0.9123    4.4743   -2.7750 H         1 <0>         0.1192
     42 H16        -2.2054    3.2371   -2.8814 H         1 <0>         0.0964
     43 H17         0.7173    3.0136   -3.6062 H         1 <0>         0.1072
     44 H18        -0.6857    2.1314   -4.2815 H         1 <0>         0.1066
     45 H19         1.1258    1.2805   -2.1669 H         1 <0>         0.1373
     46 H20        -0.2516    0.3839   -2.8670 H         1 <0>         0.1362
     47 N4         -0.7253    1.5874   -1.2054 N.4       1 <0>        -0.3977
     48 H21        -1.6366    1.1199   -1.2779 H         1 <0>         0.4211
@<TRIPOS>BOND
     1    1    6 ar
     2    1    2 ar
     3    1   27 1
     4    2    3 ar
     5    2   28 1
     6    3    4 ar
     7    3   29 1
     8    4    5 ar
     9    4    7 1
    10    5    6 ar
    11    5   30 1
    12    6   31 1
    13    7   11 1
    14    7    8 1
    15    8    9 2
    16    8   22 1
    17    9   10 1
    18   10   11 2
    19   11   12 1
    20   12   13 1
    21   13   14 1
    22   13   32 1
    23   13   33 1
    24   14   19 ar
    25   14   15 ar
    26   15   16 ar
    27   15   34 1
    28   16   17 ar
    29   16   35 1
    30   17   18 ar
    31   17   21 1
    32   18   19 ar
    33   18   36 1
    34   19   20 1
    35   22   37 1
    36   22   38 1
    37   22   47 1
    38   23   24 1
    39   23   39 1
    40   23   40 1
    41   23   47 1
    42   24   25 1
    43   24   41 1
    44   24   42 1
    45   25   26 1
    46   25   43 1
    47   25   44 1
    48   26   45 1
    49   26   46 1
    50   26   47 1
    51   47   48 1
@<TRIPOS>MOLECULE
ZINC19635829
   49    50     0     0     0
SMALL
USER_CHARGES
N'-benzyl-N'-[(5-bromo-2-methoxy-phenyl)methyl]-N,N-dimethyl-ethane-1,2-diamine
@<TRIPOS>ATOM
      1 C1          1.9717    7.0025   -4.1195 C.3       1 <0>         0.0078
      2 N1          1.8039    5.6121   -4.5629 N.3       1 <0>        -0.5353
      3 C2          2.1256    5.4719   -5.9894 C.3       1 <0>         0.0179
      4 C3          2.6155    4.6981   -3.7480 C.3       1 <0>         0.0284
      5 C4          2.0864    4.6887   -2.3124 C.3       1 <0>        -0.0157
      6 N2          2.8941    3.7701   -1.4989 N.4       1 <0>        -0.3960
      7 C5          4.2248    4.3331   -1.2338 C.3       1 <0>         0.0413
      8 C6          5.1681    3.2271   -0.8361 C.ar      1 <0>        -0.1535
      9 C7          5.3989    2.9629    0.5010 C.ar      1 <0>        -0.0904
     10 C8          6.2604    1.9452    0.8658 C.ar      1 <0>        -0.1115
     11 C9          6.8987    1.1982   -0.1066 C.ar      1 <0>        -0.0853
     12 C10         6.6723    1.4661   -1.4437 C.ar      1 <0>        -0.1124
     13 C11         5.8068    2.4804   -1.8084 C.ar      1 <0>        -0.0955
     14 C12         2.2059    3.4330   -0.2456 C.3       1 <0>         0.0551
     15 C13         0.9619    2.6401   -0.5532 C.ar      1 <0>        -0.1839
     16 C14        -0.2708    3.2640   -0.5631 C.ar      1 <0>        -0.0272
     17 C15        -1.4128    2.5368   -0.8463 C.ar      1 <0>        -0.1272
     18 C16        -1.3229    1.1845   -1.1250 C.ar      1 <0>        -0.0180
     19 C17        -0.0932    0.5557   -1.1105 C.ar      1 <0>        -0.1955
     20 C18         1.0536    1.2834   -0.8271 C.ar      1 <0>         0.1647
     21 O1          2.2654    0.6678   -0.8183 O.3       1 <0>        -0.3178
     22 C19         2.2845   -0.7310   -1.1098 C.3       1 <0>         0.0174
     23 Br1        -3.0985    3.3937   -0.8604 Br        1 <0>        -0.0196
     24 H1          1.7248    7.0787   -3.0503 H         1 <0>         0.0697
     25 H2          1.3014    7.6552   -4.6980 H         1 <0>         0.0852
     26 H3          3.0145    7.3146   -4.2782 H         1 <0>         0.0365
     27 H4          1.9918    4.4234   -6.2941 H         1 <0>         0.0757
     28 H5          3.1694    5.7733   -6.1612 H         1 <0>         0.0358
     29 H6          1.4564    6.1139   -6.5810 H         1 <0>         0.0844
     30 H7          2.5567    3.6828   -4.1672 H         1 <0>         0.0948
     31 H8          3.6624    5.0358   -3.7508 H         1 <0>         0.0560
     32 H9          2.1495    5.7031   -1.8917 H         1 <0>         0.1303
     33 H10         1.0381    4.3554   -2.3101 H         1 <0>         0.1402
     34 H11         4.6013    4.8274   -2.1415 H         1 <0>         0.1358
     35 H12         4.1563    5.0677   -0.4179 H         1 <0>         0.1353
     36 H13         4.9033    3.5492    1.2606 H         1 <0>         0.1296
     37 H14         6.4376    1.7361    1.9104 H         1 <0>         0.1344
     38 H15         7.5746    0.4056    0.1784 H         1 <0>         0.1339
     39 H16         7.1713    0.8828   -2.2034 H         1 <0>         0.1339
     40 H17         5.6298    2.6897   -2.8531 H         1 <0>         0.1271
     41 H18         2.8745    2.8342    0.3902 H         1 <0>         0.1426
     42 H19         1.9300    4.3582    0.2816 H         1 <0>         0.1354
     43 H20        -0.3427    4.3203   -0.3500 H         1 <0>         0.1483
     44 H21        -2.2153    0.6193   -1.3499 H         1 <0>         0.1481
     45 H22        -0.0239   -0.5007   -1.3239 H         1 <0>         0.1495
     46 H23         3.3200   -1.0999   -1.0693 H         1 <0>         0.1132
     47 H24         1.8736   -0.9015   -2.1158 H         1 <0>         0.0672
     48 H25         1.6746   -1.2683   -0.3687 H         1 <0>         0.0688
     49 H26         3.0283    2.8405   -2.0715 H         1 <0>         0.4403
@<TRIPOS>BOND
     1    1    2 1
     2    1   24 1
     3    1   25 1
     4    1   26 1
     5    2    3 1
     6    2    4 1
     7    3   27 1
     8    3   28 1
     9    3   29 1
    10    4    5 1
    11    4   30 1
    12    4   31 1
    13    5    6 1
    14    5   32 1
    15    5   33 1
    16    6    7 1
    17    6   14 1
    18    6   49 1
    19    7    8 1
    20    7   34 1
    21    7   35 1
    22    8   13 ar
    23    8    9 ar
    24    9   10 ar
    25    9   36 1
    26   10   11 ar
    27   10   37 1
    28   11   12 ar
    29   11   38 1
    30   12   13 ar
    31   12   39 1
    32   13   40 1
    33   14   15 1
    34   14   41 1
    35   14   42 1
    36   15   20 ar
    37   15   16 ar
    38   16   17 ar
    39   16   43 1
    40   17   18 ar
    41   17   23 1
    42   18   19 ar
    43   18   44 1
    44   19   20 ar
    45   19   45 1
    46   20   21 1
    47   21   22 1
    48   22   46 1
    49   22   47 1
    50   22   48 1
@<TRIPOS>MOLECULE
ZINC32951940
   61    63     0     0     0
SMALL
USER_CHARGES
4-[[(3R)-3-methyl-1-piperidyl]methyl]-1-(4-propylphenyl)sulfonyl-piperidine
@<TRIPOS>ATOM
      1 C1         -0.0879    5.8888  -11.5608 C.3       1 <0>        -0.1563
      2 C2          0.9091    5.6521  -10.4246 C.3       1 <0>        -0.1210
      3 C3          0.2425    4.8220   -9.3258 C.3       1 <0>        -0.0943
      4 C4          1.2245    4.5889   -8.2067 C.ar      1 <0>        -0.0179
      5 C5          1.3045    5.4870   -7.1590 C.ar      1 <0>        -0.1375
      6 C6          2.2046    5.2727   -6.1320 C.ar      1 <0>        -0.0176
      7 C7          3.0246    4.1600   -6.1526 C.ar      1 <0>        -0.6850
      8 C8          2.9483    3.2646   -7.2030 C.ar      1 <0>        -0.0186
      9 C9          2.0451    3.4766   -8.2278 C.ar      1 <0>        -0.1382
     10 S1          4.1719    3.8868   -4.8435 S.o2      1 <0>         2.6875
     11 O1          4.4335    5.1563   -4.2611 O.2       1 <0>        -0.9470
     12 O2          5.2030    3.0642   -5.3723 O.2       1 <0>        -0.9483
     13 N1          3.3942    2.9882   -3.6903 N.pl3     1 <0>        -0.9990
     14 C10         3.4332    1.5201   -3.7330 C.3       1 <0>         0.1164
     15 C11         1.9974    0.9873   -3.6930 C.3       1 <0>        -0.1504
     16 C12         1.2783    1.5616   -2.4702 C.3       1 <0>        -0.1127
     17 C13         1.2246    3.0873   -2.5779 C.3       1 <0>        -0.1301
     18 C14         2.6516    3.6439   -2.6053 C.3       1 <0>         0.1161
     19 C15        -0.1453    1.0046   -2.4078 C.3       1 <0>        -0.0054
     20 N2         -0.1517   -0.2357   -1.6207 N.4       1 <0>        -0.3951
     21 C16         0.6478   -1.2788   -2.2757 C.3       1 <0>        -0.0152
     22 C17         0.5004   -2.5940   -1.5072 C.3       1 <0>        -0.1464
     23 C18         0.9736   -2.3926   -0.0650 C.3       1 <0>        -0.1366
     24 C19         0.1577   -1.2683    0.5790 C.3       1 <0>        -0.1085
     25 H1         -0.9033   -1.5565    0.6152 H         1 <0>         0.0941
     26 C20         0.3148    0.0086   -0.2499 C.3       1 <0>        -0.0079
     27 C21         0.6633   -1.0193    2.0014 C.3       1 <0>        -0.1547
     28 H2          0.3914    6.4856  -12.3508 H         1 <0>         0.0607
     29 H3         -0.9639    6.4295  -11.1732 H         1 <0>         0.0568
     30 H4         -0.4079    4.9214  -11.9752 H         1 <0>         0.0566
     31 H5          1.7851    5.1114  -10.8122 H         1 <0>         0.0661
     32 H6          1.2292    6.6195  -10.0102 H         1 <0>         0.0663
     33 H7         -0.6335    5.3627   -8.9382 H         1 <0>         0.0800
     34 H8         -0.0776    3.8546   -9.7402 H         1 <0>         0.0796
     35 H9          0.6634    6.3560   -7.1425 H         1 <0>         0.1341
     36 H10         2.2671    5.9744   -5.3134 H         1 <0>         0.1388
     37 H11         3.5920    2.3976   -7.2213 H         1 <0>         0.1381
     38 H12         1.9825    2.7747   -9.0462 H         1 <0>         0.1336
     39 H13         3.9266    1.1932   -4.6602 H         1 <0>         0.1017
     40 H14         3.9953    1.1428   -2.8660 H         1 <0>         0.0795
     41 H15         1.4679    1.2914   -4.6079 H         1 <0>         0.0852
     42 H16         2.0154   -0.1106   -3.6275 H         1 <0>         0.0835
     43 H17         1.8237    1.2779   -1.5580 H         1 <0>         0.0961
     44 H18         0.7009    3.3714   -3.5026 H         1 <0>         0.0821
     45 H19         0.6861    3.4974   -1.7108 H         1 <0>         0.0878
     46 H20         3.1495    3.4412   -1.6456 H         1 <0>         0.0810
     47 H21         2.6253    4.7292   -2.7827 H         1 <0>         0.1028
     48 H22        -0.8076    1.7435   -1.9332 H         1 <0>         0.1332
     49 H23        -0.5017    0.7940   -3.4269 H         1 <0>         0.1326
     50 H24         0.2953   -1.4166   -3.3085 H         1 <0>         0.1309
     51 H25         1.7057   -0.9774   -2.2865 H         1 <0>         0.1319
     52 H26        -0.5552   -2.9032   -1.5088 H         1 <0>         0.0880
     53 H27         1.1109   -3.3713   -1.9901 H         1 <0>         0.1122
     54 H28         0.8301   -3.3245    0.5015 H         1 <0>         0.0945
     55 H29         2.0400   -2.1230   -0.0633 H         1 <0>         0.0813
     56 H30         1.3742    0.3039   -0.2703 H         1 <0>         0.1278
     57 H31        -0.2819    0.8145    0.2023 H         1 <0>         0.1310
     58 H32         0.0765   -0.2115    2.4630 H         1 <0>         0.0687
     59 H33         1.7238   -0.7291    1.9680 H         1 <0>         0.0669
     60 H34         0.5531   -1.9383    2.5958 H         1 <0>         0.0779
     61 H35        -1.1895   -0.5958   -1.5625 H         1 <0>         0.4425
@<TRIPOS>BOND
     1    1    2 1
     2    1   28 1
     3    1   29 1
     4    1   30 1
     5    2    3 1
     6    2   31 1
     7    2   32 1
     8    3    4 1
     9    3   33 1
    10    3   34 1
    11    4    9 ar
    12    4    5 ar
    13    5    6 ar
    14    5   35 1
    15    6    7 ar
    16    6   36 1
    17    7    8 ar
    18    7   10 1
    19    8    9 ar
    20    8   37 1
    21    9   38 1
    22   10   11 2
    23   10   12 2
    24   10   13 1
    25   13   18 1
    26   13   14 1
    27   14   15 1
    28   14   39 1
    29   14   40 1
    30   15   16 1
    31   15   41 1
    32   15   42 1
    33   16   17 1
    34   16   19 1
    35   16   43 1
    36   17   18 1
    37   17   44 1
    38   17   45 1
    39   18   46 1
    40   18   47 1
    41   19   20 1
    42   19   48 1
    43   19   49 1
    44   20   26 1
    45   20   21 1
    46   20   61 1
    47   21   22 1
    48   21   50 1
    49   21   51 1
    50   22   23 1
    51   22   52 1
    52   22   53 1
    53   23   24 1
    54   23   54 1
    55   23   55 1
    56   24   25 1
    57   24   26 1
    58   24   27 1
    59   26   56 1
    60   26   57 1
    61   27   58 1
    62   27   59 1
    63   27   60 1
@<TRIPOS>MOLECULE
ZINC59397330
   52    54     0     0     0
SMALL
USER_CHARGES

@<TRIPOS>ATOM
      1 C1          3.0988    1.8916   -0.9885 C.3       1 <0>        -0.1542
      2 C2          3.3991    0.3946   -1.0864 C.3       1 <0>        -0.1216
      3 C3          2.2140   -0.3218   -1.7368 C.3       1 <0>        -0.1211
      4 C4          2.5143   -1.8189   -1.8347 C.3       1 <0>         0.0542
      5 O1          1.4074   -2.4880   -2.4422 O.3       1 <0>        -0.3050
      6 C5          1.5133   -3.8337   -2.6047 C.ar      1 <0>         0.1706
      7 C6          2.6571   -4.4953   -2.1823 C.ar      1 <0>        -0.1969
      8 C7          2.7649   -5.8621   -2.3467 C.ar      1 <0>        -0.0375
      9 C8          1.7285   -6.5741   -2.9348 C.ar      1 <0>         0.0242
     10 C9          0.5841   -5.9116   -3.3574 C.ar      1 <0>        -0.0412
     11 C10         0.4750   -4.5456   -3.1877 C.ar      1 <0>        -0.1392
     12 N1          1.8377   -7.9629   -3.1025 N.am      1 <0>        -0.4696
     13 C11         2.3707   -8.4184   -4.2237 C.2       1 <0>         0.5239
     14 O2          2.7635   -7.6798   -5.1015 O.2       1 <0>        -0.4139
     15 C12         2.4576   -9.9340   -4.3362 C.3       1 <0>        -0.1519
     16 H1          3.4926  -10.2675   -4.4111 H         1 <0>         0.1801
     17 S1          1.7152  -10.4112   -2.7201 S.3       1 <0>        -0.0571
     18 C13         1.3995   -8.7612   -2.1114 C.2       1 <0>         0.2751
     19 S2          0.7005   -8.3027   -0.6174 S.2       1 <0>        -0.2090
     20 C14         1.6234  -10.4540   -5.5086 C.3       1 <0>         0.0207
     21 N2          1.7363  -11.9170   -5.5790 N.4       1 <0>        -0.3840
     22 C15         3.1239  -12.2850   -5.8854 C.3       1 <0>        -0.0182
     23 C16         3.2645  -13.8087   -5.8800 C.3       1 <0>        -0.1453
     24 C17         2.3311  -14.4058   -6.9371 C.3       1 <0>        -0.1400
     25 C18         0.8961  -13.9544   -6.6503 C.3       1 <0>        -0.1463
     26 C19         0.8432  -12.4253   -6.6271 C.3       1 <0>        -0.0074
     27 H2          2.9340    2.2952   -1.9876 H         1 <0>         0.0570
     28 H3          2.2053    2.0442   -0.3831 H         1 <0>         0.0575
     29 H4          3.9431    2.4021   -0.5251 H         1 <0>         0.0598
     30 H5          4.2926    0.2421   -1.6918 H         1 <0>         0.0652
     31 H6          3.5639   -0.0090   -0.0874 H         1 <0>         0.0659
     32 H7          1.3205   -0.1693   -1.1314 H         1 <0>         0.0773
     33 H8          2.0492    0.0817   -2.7359 H         1 <0>         0.0765
     34 H9          3.4078   -1.9714   -2.4401 H         1 <0>         0.0672
     35 H10         2.6791   -2.2225   -0.8357 H         1 <0>         0.0686
     36 H11         3.4636   -3.9413   -1.7250 H         1 <0>         0.1438
     37 H12         3.6556   -6.3770   -2.0181 H         1 <0>         0.1299
     38 H13        -0.2224   -6.4650   -3.8153 H         1 <0>         0.1330
     39 H14        -0.4170   -4.0306   -3.5127 H         1 <0>         0.1478
     40 H15         0.5794  -10.1768   -5.3629 H         1 <0>         0.1481
     41 H16         1.9894  -10.0162   -6.4373 H         1 <0>         0.1616
     42 H17         3.3930  -11.8992   -6.8687 H         1 <0>         0.1376
     43 H18         3.7872  -11.8566   -5.1340 H         1 <0>         0.1274
     44 H19         4.2950  -14.0799   -6.1094 H         1 <0>         0.1163
     45 H20         2.9959  -14.1955   -4.8970 H         1 <0>         0.0899
     46 H21         2.6314  -14.0593   -7.9260 H         1 <0>         0.0840
     47 H22         2.3856  -15.4937   -6.8987 H         1 <0>         0.0973
     48 H23         0.2337  -14.3297   -7.4303 H         1 <0>         0.1169
     49 H24         0.5784  -14.3443   -5.6832 H         1 <0>         0.0899
     50 H25        -0.1771  -12.1005   -6.4234 H         1 <0>         0.1346
     51 H26         1.1609  -12.0365   -7.5946 H         1 <0>         0.1346
     52 H27         1.4727  -12.3168   -4.6909 H         1 <0>         0.4230
@<TRIPOS>BOND
     1    1    2 1
     2    1   27 1
     3    1   28 1
     4    1   29 1
     5    2    3 1
     6    2   30 1
     7    2   31 1
     8    3    4 1
     9    3   32 1
    10    3   33 1
    11    4    5 1
    12    4   34 1
    13    4   35 1
    14    5    6 1
    15    6   11 ar
    16    6    7 ar
    17    7    8 ar
    18    7   36 1
    19    8    9 ar
    20    8   37 1
    21    9   10 ar
    22    9   12 1
    23   10   11 ar
    24   10   38 1
    25   11   39 1
    26   12   18 1
    27   12   13 am
    28   13   14 2
    29   13   15 1
    30   15   16 1
    31   15   17 1
    32   15   20 1
    33   17   18 1
    34   18   19 2
    35   20   21 1
    36   20   40 1
    37   20   41 1
    38   21   26 1
    39   21   22 1
    40   21   52 1
    41   22   23 1
    42   22   42 1
    43   22   43 1
    44   23   24 1
    45   23   44 1
    46   23   45 1
    47   24   25 1
    48   24   46 1
    49   24   47 1
    50   25   26 1
    51   25   48 1
    52   25   49 1
    53   26   50 1
    54   26   51 1
@<TRIPOS>MOLECULE
ZINC66544320
   43    44     0     0     0
SMALL
USER_CHARGES

@<TRIPOS>ATOM
      1 C1          2.0139   -2.9127   -2.8997 C.3       1 <0>        -0.1603
      2 C2          1.1287   -3.5486   -1.8259 C.3       1 <0>        -0.1210
      3 C3         -0.2326   -2.8505   -1.8080 C.3       1 <0>        -0.1550
      4 C4         -1.1178   -3.4864   -0.7342 C.3       1 <0>        -0.0152
      5 N1         -2.4807   -2.9488   -0.8417 N.4       1 <0>        -0.3790
      6 C5         -3.4275   -3.8882   -0.2260 C.3       1 <0>         0.0394
      7 C6         -4.8236   -3.5780   -0.7013 C.ar      1 <0>        -0.1537
      8 C7         -5.8549   -3.4641    0.2126 C.ar      1 <0>        -0.0519
      9 C8         -7.1356   -3.1793   -0.2215 C.ar      1 <0>        -0.1327
     10 C9         -7.3863   -3.0077   -1.5723 C.ar      1 <0>         0.1600
     11 C10        -6.3525   -3.1219   -2.4872 C.ar      1 <0>        -0.1273
     12 C11        -5.0708   -3.4019   -2.0497 C.ar      1 <0>        -0.0750
     13 Br1        -6.6923   -2.8881   -4.3327 Br        1 <0>         0.0083
     14 F1         -8.6380   -2.7296   -1.9977 F         1 <0>        -0.1040
     15 C12        -2.5531   -1.6557   -0.1484 C.3       1 <0>         0.0224
     16 H1         -1.8788   -1.6591    0.7081 H         1 <0>         0.1648
     17 C13        -3.9935   -1.4005    0.3256 C.3       1 <0>        -0.1646
     18 C14        -4.1510    0.0755    0.7641 C.3       1 <0>        -0.5740
     19 S1         -2.8952    0.9389   -0.2655 S.o2      1 <0>         2.3858
     20 O1         -1.9177    1.5189    0.5874 O.2       1 <0>        -0.9026
     21 O2         -3.5613    1.7531   -1.2208 O.2       1 <0>        -0.9009
     22 C15        -2.1554   -0.5127   -1.1255 C.3       1 <0>        -0.6331
     23 H2          2.9837   -3.4100   -2.9124 H         1 <0>         0.0682
     24 H3          1.5374   -3.0205   -3.8741 H         1 <0>         0.0596
     25 H4          2.1512   -1.8544   -2.6775 H         1 <0>         0.0600
     26 H5          0.9914   -4.6068   -2.0481 H         1 <0>         0.0742
     27 H6          1.6052   -3.4408   -0.8515 H         1 <0>         0.0753
     28 H7         -0.0953   -1.7922   -1.5858 H         1 <0>         0.0910
     29 H8         -0.7091   -2.9583   -2.7824 H         1 <0>         0.0876
     30 H9         -1.1412   -4.5669   -0.8758 H         1 <0>         0.1391
     31 H10        -0.7137   -3.2578    0.2520 H         1 <0>         0.1377
     32 H11        -3.1650   -4.9072   -0.5102 H         1 <0>         0.1520
     33 H12        -3.3828   -3.7905    0.8587 H         1 <0>         0.1485
     34 H13        -5.6596   -3.5983    1.2663 H         1 <0>         0.1564
     35 H14        -7.9409   -3.0908    0.4928 H         1 <0>         0.1630
     36 H15        -4.2635   -3.4866   -2.7621 H         1 <0>         0.1435
     37 H16        -4.6854   -1.6115   -0.4897 H         1 <0>         0.1171
     38 H17        -4.2184   -2.0543    1.1682 H         1 <0>         0.1249
     39 H18        -5.1529    0.4408    0.5388 H         1 <0>         0.1604
     40 H19        -3.9261    0.1897    1.8245 H         1 <0>         0.1569
     41 H20        -1.0722   -0.4166   -1.1998 H         1 <0>         0.1697
     42 H21        -2.6043   -0.6599   -2.1078 H         1 <0>         0.1610
     43 H22        -2.7167   -2.8225   -1.8145 H         1 <0>         0.4233
@<TRIPOS>BOND
     1    1    2 1
     2    1   23 1
     3    1   24 1
     4    1   25 1
     5    2    3 1
     6    2   26 1
     7    2   27 1
     8    3    4 1
     9    3   28 1
    10    3   29 1
    11    4    5 1
    12    4   30 1
    13    4   31 1
    14    5    6 1
    15    5   15 1
    16    5   43 1
    17    6    7 1
    18    6   32 1
    19    6   33 1
    20    7   12 ar
    21    7    8 ar
    22    8    9 ar
    23    8   34 1
    24    9   10 ar
    25    9   35 1
    26   10   11 ar
    27   10   14 1
    28   11   12 ar
    29   11   13 1
    30   12   36 1
    31   15   16 1
    32   15   22 1
    33   15   17 1
    34   17   18 1
    35   17   37 1
    36   17   38 1
    37   18   19 1
    38   18   39 1
    39   18   40 1
    40   19   20 2
    41   19   21 2
    42   19   22 1
    43   22   41 1
    44   22   42 1
@<TRIPOS>MOLECULE
ZINC12302042
   69    73     0     0     0
SMALL
USER_CHARGES
N-[(1-indan-2-yl-4-piperidyl)methyl]-3-pyrazol-1-yl-N-[[(2S)-tetrahydrofuran-2-yl]methyl]propanamide
@<TRIPOS>ATOM
      1 C1          1.1575    3.1627    0.0081 C.ar      1 <0>        -0.1044
      2 C2          1.1752    1.7803    0.0004 C.ar      1 <0>        -0.1042
      3 C3         -0.0126    1.0758    0.0080 C.ar      1 <0>        -0.0949
      4 C4         -1.2225    1.7496    0.0174 C.ar      1 <0>        -0.1071
      5 C5         -1.2402    3.1316    0.0304 C.ar      1 <0>        -0.1076
      6 C6         -0.0480    3.8364    0.0233 C.ar      1 <0>        -0.0949
      7 C7         -2.6712    3.6250    0.0455 C.3       1 <0>        -0.0918
      8 C8         -3.5131    2.4087    0.4861 C.3       1 <0>         0.0268
      9 C9         -2.6403    1.2196    0.0318 C.3       1 <0>        -0.0919
     10 C10        -5.5359    3.6542    0.0195 C.3       1 <0>        -0.0036
     11 C11        -6.8122    3.6642   -0.8249 C.3       1 <0>        -0.1476
     12 C12        -7.6891    2.4727   -0.4300 C.3       1 <0>        -0.1177
     13 C13        -6.8946    1.1781   -0.6230 C.3       1 <0>        -0.1396
     14 C14        -5.6159    1.2402    0.2155 C.3       1 <0>        -0.0010
     15 C15        -8.9392    2.4418   -1.3115 C.3       1 <0>         0.1193
     16 N1         -9.7590    3.6248   -1.0381 N.am      1 <0>        -0.6136
     17 C16        -9.5478    4.8553   -1.8045 C.3       1 <0>         0.1082
     18 C17       -10.4390    4.8409   -3.0481 C.3       1 <0>         0.0541
     19 H1        -10.2882    3.9201   -3.6114 H         1 <0>         0.0727
     20 C18       -10.1426    6.0695   -3.9364 C.3       1 <0>        -0.1489
     21 C19       -11.5275    6.4779   -4.4865 C.3       1 <0>        -0.1560
     22 C20       -12.4968    5.4478   -3.8655 C.3       1 <0>         0.0446
     23 O1        -11.8267    4.9824   -2.6737 O.3       1 <0>        -0.3690
     24 C21       -10.7074    3.5810   -0.0815 C.2       1 <0>         0.5336
     25 O2        -10.8822    2.5622    0.5529 O.2       1 <0>        -0.5344
     26 C22       -11.5507    4.7979    0.1997 C.3       1 <0>        -0.1607
     27 C23       -12.5421    4.4831    1.3217 C.3       1 <0>         0.1528
     28 N2        -13.3619    5.6660    1.5951 N.pl3     1 <0>        -0.3760
     29 C24       -14.7104    5.7175    1.5835 C.2       1 <0>         0.0569
     30 C25       -15.0774    6.9843    1.8859 C.2       1 <0>        -0.2718
     31 C26       -13.9134    7.7327    2.0893 C.2       1 <0>         0.0492
     32 N3        -12.8846    6.9422    1.9207 N.2       1 <0>        -0.3022
     33 H2          2.0855    3.7152    0.0025 H         1 <0>         0.1346
     34 H3          2.1171    1.2519   -0.0111 H         1 <0>         0.1346
     35 H4          0.0021   -0.0041    0.0020 H         1 <0>         0.1280
     36 H5         -0.0610    4.9163    0.0294 H         1 <0>         0.1278
     37 H6         -2.7825    4.4408    0.7598 H         1 <0>         0.1048
     38 H7         -2.9695    3.9504   -0.9511 H         1 <0>         0.0969
     39 H8         -3.6459    2.4009    1.5680 H         1 <0>         0.1536
     40 H9         -2.7306    0.3931    0.7368 H         1 <0>         0.1052
     41 H10        -2.9303    0.8979   -0.9684 H         1 <0>         0.0968
     42 H11        -5.7974    3.7428    1.0740 H         1 <0>         0.1316
     43 H12        -4.9028    4.4932   -0.2692 H         1 <0>         0.1299
     44 H13        -6.5507    3.5895   -1.8805 H         1 <0>         0.0892
     45 H14        -7.3578    4.5915   -0.6499 H         1 <0>         0.1129
     46 H15        -7.9828    2.5674    0.6154 H         1 <0>         0.0958
     47 H16        -6.6344    1.0643   -1.6754 H         1 <0>         0.0898
     48 H17        -7.4984    0.3288   -0.3036 H         1 <0>         0.1167
     49 H18        -5.0409    0.3258    0.0692 H         1 <0>         0.1305
     50 H19        -5.8770    1.3401    1.2691 H         1 <0>         0.1321
     51 H20        -8.6439    2.4390   -2.3608 H         1 <0>         0.0825
     52 H21        -9.5151    1.5424   -1.0938 H         1 <0>         0.0964
     53 H22        -9.8009    5.7165   -1.1861 H         1 <0>         0.0954
     54 H23        -8.5027    4.9200   -2.1072 H         1 <0>         0.0950
     55 H24        -9.7148    6.8765   -3.3416 H         1 <0>         0.0790
     56 H25        -9.4724    5.7982   -4.7521 H         1 <0>         0.0797
     57 H26       -11.7843    7.4869   -4.1638 H         1 <0>         0.0794
     58 H27       -11.5412    6.4109   -5.5744 H         1 <0>         0.0805
     59 H28       -13.4426    5.9242   -3.6076 H         1 <0>         0.0956
     60 H29       -12.6650    4.6210   -4.5557 H         1 <0>         0.0623
     61 H30       -10.9073    5.6233    0.5044 H         1 <0>         0.1028
     62 H31       -12.0977    5.0769   -0.7009 H         1 <0>         0.1285
     63 H32       -13.1855    3.6577    1.0170 H         1 <0>         0.1020
     64 H33       -11.9951    4.2040    2.2222 H         1 <0>         0.0875
     65 H34       -15.3771    4.8949    1.3706 H         1 <0>         0.1737
     66 H35       -16.0902    7.3524    1.9576 H         1 <0>         0.1491
     67 H36       -13.8713    8.7810    2.3457 H         1 <0>         0.1838
     68 N4         -4.8053    2.3935   -0.2302 N.4       1 <0>        -0.3875
     69 H37        -4.6270    2.3059   -1.2375 H         1 <0>         0.4240
@<TRIPOS>BOND
     1    1    6 ar
     2    1    2 ar
     3    1   33 1
     4    2    3 ar
     5    2   34 1
     6    3    4 ar
     7    3   35 1
     8    4    9 1
     9    4    5 ar
    10    5    6 ar
    11    5    7 1
    12    6   36 1
    13    7    8 1
    14    7   37 1
    15    7   38 1
    16    8    9 1
    17    8   39 1
    18    8   68 1
    19    9   40 1
    20    9   41 1
    21   10   11 1
    22   10   42 1
    23   10   43 1
    24   10   68 1
    25   11   12 1
    26   11   44 1
    27   11   45 1
    28   12   13 1
    29   12   15 1
    30   12   46 1
    31   13   14 1
    32   13   47 1
    33   13   48 1
    34   14   49 1
    35   14   50 1
    36   14   68 1
    37   15   16 1
    38   15   51 1
    39   15   52 1
    40   16   17 1
    41   16   24 am
    42   17   18 1
    43   17   53 1
    44   17   54 1
    45   18   19 1
    46   18   23 1
    47   18   20 1
    48   20   21 1
    49   20   55 1
    50   20   56 1
    51   21   22 1
    52   21   57 1
    53   21   58 1
    54   22   23 1
    55   22   59 1
    56   22   60 1
    57   24   25 2
    58   24   26 1
    59   26   27 1
    60   26   61 1
    61   26   62 1
    62   27   28 1
    63   27   63 1
    64   27   64 1
    65   28   32 1
    66   28   29 1
    67   29   30 2
    68   29   65 1
    69   30   31 1
    70   30   66 1
    71   31   32 2
    72   31   67 1
    73   68   69 1
@<TRIPOS>MOLECULE
ZINC19781880
   55    57     0     0     0
SMALL
USER_CHARGES
1-[(2-bromophenyl)methyl]-4-[(2,4,5-trimethoxyphenyl)methyl]piperazine
@<TRIPOS>ATOM
      1 C1         -1.5359    6.5558    1.3509 C.3       1 <0>         0.0222
      2 O1         -0.8058    5.8783    0.3262 O.3       1 <0>        -0.3031
      3 C2         -0.6974    4.5263    0.4358 C.ar      1 <0>         0.0727
      4 C3         -1.2810    3.8688    1.5064 C.ar      1 <0>        -0.1161
      5 C4         -1.1758    2.4949    1.6157 C.ar      1 <0>        -0.1205
      6 C5         -0.4763    1.7729    0.6601 C.ar      1 <0>         0.1296
      7 C6          0.1094    2.4272   -0.4130 C.ar      1 <0>        -0.2587
      8 C7          0.0000    3.8036   -0.5270 C.ar      1 <0>         0.1489
      9 O2          0.5739    4.4474   -1.5784 O.3       1 <0>        -0.2977
     10 C8          1.2746    3.6420   -2.5283 C.3       1 <0>         0.0202
     11 O3         -0.3694    0.4220    0.7727 O.3       1 <0>        -0.3183
     12 C9          0.3602   -0.2586   -0.2503 C.3       1 <0>         0.0168
     13 C10        -1.8172    1.7811    2.7777 C.3       1 <0>         0.1107
     14 N1         -0.7990    1.4896    3.7957 N.3       1 <0>        -0.5318
     15 C11         0.1849    0.5202    3.2940 C.3       1 <0>         0.0231
     16 C12         1.2696    0.3043    4.3519 C.3       1 <0>        -0.0041
     17 N2          0.6494   -0.1746    5.5951 N.4       1 <0>        -0.4009
     18 C13        -0.3346    0.7949    6.0968 C.3       1 <0>        -0.0008
     19 C14        -1.4193    1.0107    5.0389 C.3       1 <0>         0.0245
     20 C15         1.6675   -0.4660    6.6132 C.3       1 <0>         0.0363
     21 C16         1.0826   -1.3758    7.6626 C.ar      1 <0>        -0.1290
     22 C17         0.7439   -0.8710    8.9042 C.ar      1 <0>        -0.0825
     23 C18         0.2034   -1.7044    9.8653 C.ar      1 <0>        -0.0940
     24 C19         0.0101   -3.0452    9.5887 C.ar      1 <0>        -0.0800
     25 C20         0.3532   -3.5518    8.3496 C.ar      1 <0>        -0.0798
     26 C21         0.8898   -2.7170    7.3856 C.ar      1 <0>        -0.0887
     27 Br1         1.3601   -3.4098    5.6901 Br        1 <0>        -0.0323
     28 H1         -1.5460    7.6356    1.1411 H         1 <0>         0.1061
     29 H2         -1.0552    6.3757    2.3238 H         1 <0>         0.0556
     30 H3         -2.5685    6.1776    1.3765 H         1 <0>         0.0566
     31 H4         -1.8221    4.4297    2.2541 H         1 <0>         0.1446
     32 H5          0.6500    1.8644   -1.1595 H         1 <0>         0.1443
     33 H6          1.6865    4.2843   -3.3206 H         1 <0>         0.1096
     34 H7          0.5818    2.9115   -2.9715 H         1 <0>         0.0579
     35 H8          2.0949    3.1102   -2.0239 H         1 <0>         0.0565
     36 H9          0.3691   -1.3379   -0.0381 H         1 <0>         0.1046
     37 H10         1.3932    0.1185   -0.2766 H         1 <0>         0.0585
     38 H11        -0.1201   -0.0802   -1.2237 H         1 <0>         0.0616
     39 H12        -2.5994    2.4198    3.2138 H         1 <0>         0.0948
     40 H13        -2.2656    0.8397    2.4275 H         1 <0>         0.0605
     41 H14        -0.3171   -0.4353    3.0819 H         1 <0>         0.0640
     42 H15         0.6428    0.9065    2.3715 H         1 <0>         0.1358
     43 H16         1.9915   -0.4426    3.9898 H         1 <0>         0.1322
     44 H17         1.7898    1.2545    4.5429 H         1 <0>         0.1376
     45 H18        -0.7925    0.4086    7.0193 H         1 <0>         0.1320
     46 H19         0.1673    1.7504    6.3089 H         1 <0>         0.1383
     47 H20        -2.1414    1.7579    5.3998 H         1 <0>         0.1247
     48 H21        -1.9397    0.0608    4.8468 H         1 <0>         0.0592
     49 H22         2.5292   -0.9591    6.1394 H         1 <0>         0.1412
     50 H23         1.9952    0.4729    7.0833 H         1 <0>         0.1444
     51 H24         0.8986    0.1755    9.1220 H         1 <0>         0.1439
     52 H25        -0.0645   -1.3089   10.8339 H         1 <0>         0.1453
     53 H26        -0.4088   -3.6968   10.3413 H         1 <0>         0.1470
     54 H27         0.2028   -4.5993    8.1338 H         1 <0>         0.1469
     55 H28         0.1193   -1.1120    5.3710 H         1 <0>         0.4297
@<TRIPOS>BOND
     1    1    2 1
     2    1   28 1
     3    1   29 1
     4    1   30 1
     5    2    3 1
     6    3    8 ar
     7    3    4 ar
     8    4    5 ar
     9    4   31 1
    10    5    6 ar
    11    5   13 1
    12    6    7 ar
    13    6   11 1
    14    7    8 ar
    15    7   32 1
    16    8    9 1
    17    9   10 1
    18   10   33 1
    19   10   34 1
    20   10   35 1
    21   11   12 1
    22   12   36 1
    23   12   37 1
    24   12   38 1
    25   13   14 1
    26   13   39 1
    27   13   40 1
    28   14   19 1
    29   14   15 1
    30   15   16 1
    31   15   41 1
    32   15   42 1
    33   16   17 1
    34   16   43 1
    35   16   44 1
    36   17   18 1
    37   17   20 1
    38   17   55 1
    39   18   19 1
    40   18   45 1
    41   18   46 1
    42   19   47 1
    43   19   48 1
    44   20   21 1
    45   20   49 1
    46   20   50 1
    47   21   26 ar
    48   21   22 ar
    49   22   23 ar
    50   22   51 1
    51   23   24 ar
    52   23   52 1
    53   24   25 ar
    54   24   53 1
    55   25   26 ar
    56   25   54 1
    57   26   27 1
@<TRIPOS>MOLECULE
ZINC24071101
   60    63     0     0     0
SMALL
USER_CHARGES
2-[[[1-[(2-chlorophenyl)methyl]-3,5-dimethyl-pyrazol-4-yl]methyl-methyl-amino]methyl]-5-methyl-4-phenyl-1,2,4-triazole-3-thione
@<TRIPOS>ATOM
      1 C1          3.5432    5.1885    4.1234 C.3       1 <0>        -0.0903
      2 C2          2.4630    4.7729    3.1583 C.2       1 <0>         0.0962
      3 C3          1.0896    4.7552    3.4226 C.2       1 <0>        -0.3199
      4 C4          0.4561    4.3293    2.3052 C.2       1 <0>         0.1444
      5 N1          1.3960    4.0772    1.3703 N.pl3     1 <0>        -0.3416
      6 N2          2.6478    4.3667    1.9284 N.2       1 <0>        -0.2567
      7 C5          1.1502    3.5925    0.0098 C.3       1 <0>         0.1630
      8 C6          1.1708    2.0857    0.0021 C.ar      1 <0>        -0.1241
      9 C7         -0.0167    1.3780    0.0096 C.ar      1 <0>        -0.0889
     10 C8          0.0021   -0.0041    0.0020 C.ar      1 <0>        -0.1157
     11 C9          1.2084   -0.6796   -0.0131 C.ar      1 <0>        -0.0877
     12 C10         2.3961    0.0268   -0.0211 C.ar      1 <0>        -0.1126
     13 C11         2.3780    1.4104   -0.0135 C.ar      1 <0>        -0.0123
     14 Cl1         3.8696    2.2984   -0.0229 Cl        1 <0>        -0.0447
     15 C12        -1.0321    4.1627    2.1365 C.3       1 <0>        -0.1196
     16 C13         0.4312    5.1472    4.7202 C.3       1 <0>         0.0918
     17 N3          0.1150    6.5816    4.6951 N.4       1 <0>        -0.4219
     18 C14         1.3409    7.3905    4.6667 C.3       1 <0>        -0.0492
     19 C15        -0.7349    6.9533    5.8341 C.3       1 <0>         0.2696
     20 N4         -1.2246    8.3220    5.6518 N.pl3     1 <0>        -0.4264
     21 C16        -2.3634    8.6870    5.0267 C.2       1 <0>         0.4570
     22 S1         -3.5020    7.6357    4.2994 S.2       1 <0>        -0.5055
     23 N5         -2.4393   10.0320    5.0799 N.pl3     1 <0>        -0.4367
     24 C17        -1.3322   10.5012    5.7468 C.2       1 <0>         0.3177
     25 N6         -0.6000    9.4941    6.0998 N.2       1 <0>        -0.2822
     26 C18        -1.0255   11.9498    6.0272 C.3       1 <0>        -0.0959
     27 C19        -3.4699   10.8174    4.5464 C.ar      1 <0>         0.0905
     28 C20        -3.2059   11.6983    3.5061 C.ar      1 <0>        -0.0954
     29 C21        -4.2249   12.4676    2.9792 C.ar      1 <0>        -0.1042
     30 C22        -5.5045   12.3691    3.4940 C.ar      1 <0>        -0.0850
     31 C23        -5.7695   11.4962    4.5332 C.ar      1 <0>        -0.1013
     32 C24        -4.7559   10.7205    5.0609 C.ar      1 <0>        -0.0725
     33 H1          3.0870    5.4801    5.0809 H         1 <0>         0.0729
     34 H2          4.0985    6.0418    3.7069 H         1 <0>         0.0857
     35 H3          4.2325    4.3470    4.2868 H         1 <0>         0.0903
     36 H4          0.1675    3.9476   -0.3340 H         1 <0>         0.1143
     37 H5          1.9333    3.9734   -0.6622 H         1 <0>         0.1187
     38 H6         -0.9593    1.9051    0.0169 H         1 <0>         0.1329
     39 H7         -0.9259   -0.5565    0.0075 H         1 <0>         0.1362
     40 H8          1.2224   -1.7595   -0.0190 H         1 <0>         0.1388
     41 H9          3.3383   -0.5010   -0.0329 H         1 <0>         0.1391
     42 H10        -1.2477    3.8018    1.1200 H         1 <0>         0.0840
     43 H11        -1.5297    5.1308    2.2951 H         1 <0>         0.0926
     44 H12        -1.4051    3.4339    2.8712 H         1 <0>         0.1006
     45 H13        -0.4959    4.5696    4.8501 H         1 <0>         0.1390
     46 H14         1.1144    4.9369    5.5562 H         1 <0>         0.1383
     47 H15         1.0755    8.4579    4.6483 H         1 <0>         0.1141
     48 H16         1.9234    7.1419    3.7673 H         1 <0>         0.1284
     49 H17         1.9416    7.1774    5.5632 H         1 <0>         0.1268
     50 H18        -1.5893    6.2632    5.8946 H         1 <0>         0.1771
     51 H19        -0.1492    6.8941    6.7633 H         1 <0>         0.1696
     52 H20        -0.0750   12.0238    6.5759 H         1 <0>         0.1159
     53 H21        -1.8337   12.3850    6.6334 H         1 <0>         0.1111
     54 H22        -0.9440   12.4979    5.0770 H         1 <0>         0.1088
     55 H23        -2.2057   11.7791    3.1068 H         1 <0>         0.1286
     56 H24        -4.0210   13.1499    2.1673 H         1 <0>         0.1408
     57 H25        -6.2987   12.9750    3.0833 H         1 <0>         0.1393
     58 H26        -6.7700   11.4213    4.9329 H         1 <0>         0.1414
     59 H27        -4.9635   10.0389    5.8725 H         1 <0>         0.1314
     60 H28        -0.4473    6.7878    3.7725 H         1 <0>         0.4430
@<TRIPOS>BOND
     1    1    2 1
     2    1   33 1
     3    1   34 1
     4    1   35 1
     5    2    6 2
     6    2    3 1
     7    3    4 2
     8    3   16 1
     9    4    5 1
    10    4   15 1
    11    5    6 1
    12    5    7 1
    13    7    8 1
    14    7   36 1
    15    7   37 1
    16    8   13 ar
    17    8    9 ar
    18    9   10 ar
    19    9   38 1
    20   10   11 ar
    21   10   39 1
    22   11   12 ar
    23   11   40 1
    24   12   13 ar
    25   12   41 1
    26   13   14 1
    27   15   42 1
    28   15   43 1
    29   15   44 1
    30   16   17 1
    31   16   45 1
    32   16   46 1
    33   17   18 1
    34   17   19 1
    35   17   60 1
    36   18   47 1
    37   18   48 1
    38   18   49 1
    39   19   20 1
    40   19   50 1
    41   19   51 1
    42   20   25 1
    43   20   21 1
    44   21   22 2
    45   21   23 1
    46   23   24 1
    47   23   27 1
    48   24   25 2
    49   24   26 1
    50   26   52 1
    51   26   53 1
    52   26   54 1
    53   27   32 ar
    54   27   28 ar
    55   28   29 ar
    56   28   55 1
    57   29   30 ar
    58   29   56 1
    59   30   31 ar
    60   30   57 1
    61   31   32 ar
    62   31   58 1
    63   32   59 1
@<TRIPOS>MOLECULE
ZINC03873817
   58    62     0     0     0
SMALL
USER_CHARGES

@<TRIPOS>ATOM
      1 C1         -0.0178    1.4608    0.0101 C.3       1 <0>         0.0716
      2 N1          0.0021   -0.0041    0.0020 N.pl3     1 <0>        -0.4808
      3 C2          0.0080   -0.7895   -1.1411 C.2       1 <0>         0.0939
      4 C3          0.0282   -2.0729   -0.8158 C.2       1 <0>        -0.1975
      5 C4          0.0400   -2.1061    0.6467 C.ar      1 <0>        -0.1187
      6 C5          0.0233   -0.7876    1.1160 C.ar      1 <0>         0.1139
      7 C6          0.0281   -0.6014    2.4974 C.ar      1 <0>        -0.0951
      8 C7          0.0555   -1.7454    3.2836 C.ar      1 <0>        -0.1020
      9 C8          0.0797   -3.0442    2.7772 C.ar      1 <0>        -0.1088
     10 C9          0.0695   -3.2585    1.4352 C.ar      1 <0>        -0.0859
     11 C10         0.1084   -4.5672    0.7055 C.3       1 <0>         0.1747
     12 C11        -0.5981   -5.6387    1.5422 C.3       1 <0>        -0.1608
     13 C12        -0.5917   -6.9634    0.7749 C.3       1 <0>        -0.1017
     14 H1          0.4364   -7.2946    0.6283 H         1 <0>         0.1159
     15 C13        -1.2619   -6.7580   -0.5856 C.3       1 <0>        -0.0062
     16 N2         -0.5193   -5.7488   -1.3493 N.4       1 <0>        -0.3812
     17 C14        -0.5750   -4.4545   -0.6579 C.3       1 <0>         0.0557
     18 H2         -1.6220   -4.1979   -0.4966 H         1 <0>         0.1431
     19 C15         0.0386   -3.3796   -1.5674 C.3       1 <0>        -0.0454
     20 C16        -1.1140   -5.6136   -2.6857 C.3       1 <0>        -0.0551
     21 C17        -1.3607   -8.0194    1.5713 C.3       1 <0>         0.0725
     22 O1         -1.2557   -9.2830    0.9123 O.3       1 <0>        -0.3531
     23 C18        -1.8818  -10.3273    1.4887 C.2       1 <0>         0.5232
     24 O2         -2.4999  -10.1697    2.5224 O.2       1 <0>        -0.4827
     25 C19        -1.8166  -11.6642    0.8636 C.ar      1 <0>        -0.1808
     26 C20        -2.4681  -12.7568    1.4497 C.ar      1 <0>         0.0204
     27 C21        -2.3762  -13.9880    0.8236 C.ar      1 <0>        -0.1595
     28 C22        -1.6504  -14.0984   -0.3503 C.ar      1 <0>         0.1749
     29 N3         -1.0472  -13.0511   -0.8790 N.ar      1 <0>        -0.4769
     30 C23        -1.1097  -11.8585   -0.3241 C.ar      1 <0>         0.1722
     31 Br1        -3.2323  -15.5029    1.5639 Br        1 <0>        -0.0018
     32 O3          1.4691   -4.9617    0.5188 O.3       1 <0>        -0.3782
     33 C24         2.1971   -5.1325    1.7366 C.3       1 <0>         0.0216
     34 H3          1.0048    1.8381    0.0023 H         1 <0>         0.0767
     35 H4         -0.5450    1.8219   -0.8730 H         1 <0>         0.0895
     36 H5         -0.5280    1.8123    0.9069 H         1 <0>         0.0865
     37 H6         -0.0028   -0.4089   -2.1517 H         1 <0>         0.1729
     38 H7          0.0117    0.3857    2.9353 H         1 <0>         0.1362
     39 H8          0.0586   -1.6213    4.3564 H         1 <0>         0.1295
     40 H9          0.1012   -3.8846    3.4551 H         1 <0>         0.1243
     41 H10        -0.0744   -5.7644    2.4899 H         1 <0>         0.1076
     42 H11        -1.6269   -5.3328    1.7318 H         1 <0>         0.1008
     43 H12        -1.2652   -7.6995   -1.1349 H         1 <0>         0.1426
     44 H13        -2.2876   -6.4199   -0.4381 H         1 <0>         0.1312
     45 H14        -0.5532   -3.2857   -2.4780 H         1 <0>         0.1000
     46 H15         1.0635   -3.6515   -1.8197 H         1 <0>         0.1002
     47 H16        -2.1551   -5.3050   -2.5906 H         1 <0>         0.1235
     48 H17        -0.5634   -4.8642   -3.2543 H         1 <0>         0.1299
     49 H18        -1.0648   -6.5713   -3.2039 H         1 <0>         0.1287
     50 H19        -0.9396   -8.0964    2.5738 H         1 <0>         0.0918
     51 H20        -2.4096   -7.7310    1.6390 H         1 <0>         0.0844
     52 H21        -3.0272  -12.6419    2.3665 H         1 <0>         0.1625
     53 H22        -1.5766  -15.0577   -0.8410 H         1 <0>         0.1791
     54 H23        -0.6058  -11.0244   -0.7897 H         1 <0>         0.1758
     55 H24         2.2075   -4.1926    2.2885 H         1 <0>         0.0604
     56 H25         1.7187   -5.9033    2.3408 H         1 <0>         0.0524
     57 H26         3.2202   -5.4318    1.5094 H         1 <0>         0.1003
     58 H27         0.4428   -6.0388   -1.4403 H         1 <0>         0.4316
@<TRIPOS>BOND
     1    1    2 1
     2    1   34 1
     3    1   35 1
     4    1   36 1
     5    2    6 1
     6    2    3 1
     7    3    4 2
     8    3   37 1
     9    4   19 1
    10    4    5 1
    11    5   10 ar
    12    5    6 ar
    13    6    7 ar
    14    7    8 ar
    15    7   38 1
    16    8    9 ar
    17    8   39 1
    18    9   10 ar
    19    9   40 1
    20   10   11 1
    21   11   17 1
    22   11   12 1
    23   11   32 1
    24   12   13 1
    25   12   41 1
    26   12   42 1
    27   13   14 1
    28   13   15 1
    29   13   21 1
    30   15   16 1
    31   15   43 1
    32   15   44 1
    33   16   17 1
    34   16   20 1
    35   16   58 1
    36   17   18 1
    37   17   19 1
    38   19   45 1
    39   19   46 1
    40   20   47 1
    41   20   48 1
    42   20   49 1
    43   21   22 1
    44   21   50 1
    45   21   51 1
    46   22   23 1
    47   23   24 2
    48   23   25 1
    49   25   30 ar
    50   25   26 ar
    51   26   27 ar
    52   26   52 1
    53   27   28 ar
    54   27   31 1
    55   28   29 ar
    56   28   53 1
    57   29   30 ar
    58   30   54 1
    59   32   33 1
    60   33   55 1
    61   33   56 1
    62   33   57 1
@<TRIPOS>MOLECULE
ZINC58967146
   66    68     0     0     0
SMALL
USER_CHARGES

@<TRIPOS>ATOM
      1 C1          0.7684    0.2008   -1.6158 C.3       1 <0>        -0.0478
      2 N1          0.5137   -1.0174   -0.8354 N.4       1 <0>        -0.3829
      3 C2          1.0406   -0.8465    0.5252 C.3       1 <0>        -0.0613
      4 C3         -0.9328   -1.2654   -0.7727 C.3       1 <0>        -0.0431
      5 C4         -1.1917   -2.5985   -0.0680 C.3       1 <0>         0.0786
      6 N2         -2.6354   -2.8305    0.0230 N.am      1 <0>        -0.6082
      7 C5         -3.4076   -3.1248   -1.1867 C.3       1 <0>         0.1486
      8 C6         -3.4374   -4.6143   -1.4138 C.ar      1 <0>        -0.0938
      9 C7         -2.4474   -5.2154   -2.1709 C.ar      1 <0>        -0.1110
     10 C8         -2.4686   -6.5783   -2.3827 C.ar      1 <0>        -0.0736
     11 C9         -3.4918   -7.3516   -1.8306 C.ar      1 <0>        -0.0089
     12 C10        -4.4873   -6.7385   -1.0672 C.ar      1 <0>        -0.0684
     13 C11        -4.4513   -5.3752   -0.8594 C.ar      1 <0>        -0.0915
     14 C12        -3.5203   -8.7669   -2.0467 C.1       1 <0>         0.2376
     15 N3         -3.5430   -9.8897   -2.2182 N.1       1 <0>        -0.3938
     16 C13        -3.2531   -2.7733    1.2195 C.2       1 <0>         0.5217
     17 O1         -4.4402   -3.0078    1.3009 O.2       1 <0>        -0.4963
     18 C14        -2.4687   -2.4179    2.4562 C.3       1 <0>        -0.1085
     19 C15        -2.0781   -0.9390    2.4047 C.3       1 <0>        -0.1307
     20 C16        -1.2516   -0.5898    3.6463 C.3       1 <0>         0.1123
     21 N4         -2.0126   -0.9716    4.8438 N.am      1 <0>        -0.6148
     22 C17        -2.5144   -2.3482    4.9527 C.3       1 <0>         0.1048
     23 C18        -3.3268   -2.6777    3.6964 C.3       1 <0>        -0.1193
     24 C19        -2.2455   -0.0763    5.8238 C.2       1 <0>         0.5585
     25 O2         -1.9085    1.0843    5.6805 O.2       1 <0>        -0.5411
     26 C20        -2.9041   -0.4999    7.0611 C.2       1 <0>        -0.2370
     27 C21        -3.2339    0.4137    7.9961 C.2       1 <0>         0.0051
     28 C22        -3.8960   -0.0122    9.2400 C.ar      1 <0>        -0.0898
     29 C23        -4.1794   -1.3641    9.4579 C.ar      1 <0>        -0.0980
     30 C24        -4.7998   -1.7551   10.6256 C.ar      1 <0>        -0.1229
     31 C25        -5.1419   -0.8136   11.5806 C.ar      1 <0>        -0.1006
     32 C26        -4.8648    0.5263   11.3721 C.ar      1 <0>        -0.1216
     33 C27        -4.2396    0.9324   10.2121 C.ar      1 <0>        -0.0898
     34 H1          1.8417    0.3848   -1.6622 H         1 <0>         0.1285
     35 H2          0.3775    0.0739   -2.6253 H         1 <0>         0.1254
     36 H3          0.2749    1.0476   -1.1388 H         1 <0>         0.1238
     37 H4          2.1139   -0.6625    0.4787 H         1 <0>         0.1322
     38 H5          0.5471    0.0003    1.0022 H         1 <0>         0.1264
     39 H6          0.8516   -1.7504    1.1042 H         1 <0>         0.1238
     40 H7         -1.4156   -0.4611   -0.2176 H         1 <0>         0.1381
     41 H8         -1.3390   -1.3039   -1.7835 H         1 <0>         0.1390
     42 H9         -0.7291   -3.4056   -0.6359 H         1 <0>         0.1012
     43 H10        -0.7647   -2.5685    0.9345 H         1 <0>         0.1092
     44 H11        -4.4259   -2.7552   -1.0666 H         1 <0>         0.1067
     45 H12        -2.9423   -2.6360   -2.0427 H         1 <0>         0.0899
     46 H13        -1.6566   -4.6161   -2.5973 H         1 <0>         0.1269
     47 H14        -1.6957   -7.0462   -2.9744 H         1 <0>         0.1360
     48 H15        -5.2816   -7.3307   -0.6374 H         1 <0>         0.1380
     49 H16        -5.2184   -4.9003   -0.2658 H         1 <0>         0.1414
     50 H17        -1.5678   -3.0297    2.5031 H         1 <0>         0.0994
     51 H18        -1.4866   -0.7499    1.5089 H         1 <0>         0.0635
     52 H19        -2.9788   -0.3254    2.3828 H         1 <0>         0.0850
     53 H20        -0.3086   -1.1360    3.6231 H         1 <0>         0.0674
     54 H21        -1.0550    0.4822    3.6648 H         1 <0>         0.1006
     55 H22        -1.6744   -3.0378    5.0360 H         1 <0>         0.0746
     56 H23        -3.1510   -2.4365    5.8331 H         1 <0>         0.0986
     57 H24        -4.2157   -2.0478    3.6623 H         1 <0>         0.0841
     58 H25        -3.6240   -3.7262    3.7200 H         1 <0>         0.0891
     59 H26        -3.1257   -1.5442    7.2247 H         1 <0>         0.1332
     60 H27        -3.0123    1.4579    7.8325 H         1 <0>         0.1364
     61 H28        -3.9133   -2.0999    8.7135 H         1 <0>         0.1251
     62 H29        -5.0197   -2.7988   10.7953 H         1 <0>         0.1280
     63 H30        -5.6281   -1.1260   12.4930 H         1 <0>         0.1278
     64 H31        -5.1351    1.2552   12.1218 H         1 <0>         0.1295
     65 H32        -4.0199    1.9777   10.0529 H         1 <0>         0.1295
     66 H33         0.9705   -1.8013   -1.2769 H         1 <0>         0.4290
@<TRIPOS>BOND
     1    1    2 1
     2    1   34 1
     3    1   35 1
     4    1   36 1
     5    2    3 1
     6    2    4 1
     7    2   66 1
     8    3   37 1
     9    3   38 1
    10    3   39 1
    11    4    5 1
    12    4   40 1
    13    4   41 1
    14    5    6 1
    15    5   42 1
    16    5   43 1
    17    6    7 1
    18    6   16 am
    19    7    8 1
    20    7   44 1
    21    7   45 1
    22    8   13 ar
    23    8    9 ar
    24    9   10 ar
    25    9   46 1
    26   10   11 ar
    27   10   47 1
    28   11   12 ar
    29   11   14 1
    30   12   13 ar
    31   12   48 1
    32   13   49 1
    33   14   15 3
    34   16   17 2
    35   16   18 1
    36   18   23 1
    37   18   19 1
    38   18   50 1
    39   19   20 1
    40   19   51 1
    41   19   52 1
    42   20   21 1
    43   20   53 1
    44   20   54 1
    45   21   22 1
    46   21   24 am
    47   22   23 1
    48   22   55 1
    49   22   56 1
    50   23   57 1
    51   23   58 1
    52   24   25 2
    53   24   26 1
    54   26   27 2
    55   26   59 1
    56   27   28 1
    57   27   60 1
    58   28   33 ar
    59   28   29 ar
    60   29   30 ar
    61   29   61 1
    62   30   31 ar
    63   30   62 1
    64   31   32 ar
    65   31   63 1
    66   32   33 ar
    67   32   64 1
    68   33   65 1
@<TRIPOS>MOLECULE
ZINC11821318
   62    66     0     0     0
SMALL
USER_CHARGES
2-[[(3R)-1-[(3-benzhydryl-1,2,4-oxadiazol-5-yl)methyl]-3-piperidyl]oxymethyl]pyridine
@<TRIPOS>ATOM
      1 C1         15.4333    4.5854    4.3034 C.ar      1 <0>        -0.1074
      2 C2         14.8029    5.5775    5.0309 C.ar      1 <0>        -0.1151
      3 C3         13.5572    6.0337    4.6426 C.ar      1 <0>        -0.1014
      4 C4         12.9420    5.4982    3.5265 C.ar      1 <0>        -0.0963
      5 C5         13.5701    4.5025    2.8020 C.ar      1 <0>        -0.1099
      6 C6         14.8178    4.0493    3.1878 C.ar      1 <0>        -0.1165
      7 C7         11.5839    5.9956    3.1031 C.3       1 <0>         0.0864
      8 C8         11.7013    6.7158    1.7846 C.ar      1 <0>        -0.0939
      9 C9         12.0235    6.0124    0.6391 C.ar      1 <0>        -0.1107
     10 C10        12.1269    6.6723   -0.5712 C.ar      1 <0>        -0.1169
     11 C11        11.9170    8.0372   -0.6343 C.ar      1 <0>        -0.1084
     12 C12        11.5999    8.7415    0.5121 C.ar      1 <0>        -0.1153
     13 C13        11.4923    8.0808    1.7216 C.ar      1 <0>        -0.1020
     14 C14        10.6445    4.8266    2.9551 C.2       1 <0>         0.2021
     15 N1          9.5003    4.6337    3.6352 N.2       1 <0>        -0.4224
     16 C15         9.0125    3.5005    3.1912 C.2       1 <0>         0.0918
     17 O1          9.8674    3.0434    2.2713 O.3       1 <0>         0.1110
     18 N2         10.7913    3.8195    2.1471 N.2       1 <0>        -0.3370
     19 C16         7.7351    2.8370    3.6375 C.3       1 <0>         0.1132
     20 C17         6.7843    2.8633    1.4114 C.3       1 <0>        -0.0122
     21 C18         5.6895    3.4889    0.5441 C.3       1 <0>        -0.1417
     22 C19         4.3178    3.0660    1.0771 C.3       1 <0>        -0.1625
     23 C20         4.1934    3.4957    2.5415 C.3       1 <0>         0.0760
     24 H1          4.2537    4.5819    2.6084 H         1 <0>         0.0876
     25 C21         5.3315    2.8699    3.3509 C.3       1 <0>        -0.0018
     26 O2          2.9383    3.0545    3.0632 O.3       1 <0>        -0.3630
     27 C22         1.8774    3.9981    2.9009 C.3       1 <0>         0.1189
     28 C23         0.6081    3.4319    3.4835 C.ar      1 <0>         0.1115
     29 C24         0.6211    2.1741    4.0565 C.ar      1 <0>        -0.1518
     30 C25        -0.5519    1.6626    4.5896 C.ar      1 <0>        -0.0738
     31 C26        -1.7005    2.4366    4.5213 C.ar      1 <0>        -0.1654
     32 C27        -1.6359    3.6873    3.9373 C.ar      1 <0>         0.1089
     33 N3         -0.5021    4.1420    3.4403 N.ar      1 <0>        -0.4813
     34 H2         16.4070    4.2295    4.6063 H         1 <0>         0.1282
     35 H3         15.2839    5.9964    5.9025 H         1 <0>         0.1298
     36 H4         13.0646    6.8088    5.2110 H         1 <0>         0.1268
     37 H5         13.0875    4.0810    1.9326 H         1 <0>         0.1264
     38 H6         15.3105    3.2745    2.6192 H         1 <0>         0.1266
     39 H7         11.1962    6.6800    3.8577 H         1 <0>         0.1225
     40 H8         12.1912    4.9466    0.6891 H         1 <0>         0.1272
     41 H9         12.3743    6.1220   -1.4669 H         1 <0>         0.1262
     42 H10        12.0004    8.5532   -1.5794 H         1 <0>         0.1277
     43 H11        11.4359    9.8078    0.4628 H         1 <0>         0.1294
     44 H12        11.2446    8.6311    2.6173 H         1 <0>         0.1269
     45 H13         7.5391    3.0900    4.6795 H         1 <0>         0.1743
     46 H14         7.8333    1.7560    3.5384 H         1 <0>         0.1711
     47 H15         7.7617    3.1746    1.0430 H         1 <0>         0.1259
     48 H16         6.7079    1.7770    1.3650 H         1 <0>         0.1442
     49 H17         5.7738    4.5750    0.5790 H         1 <0>         0.0893
     50 H18         5.8015    3.1481   -0.4852 H         1 <0>         0.1216
     51 H19         4.2178    1.9829    1.0055 H         1 <0>         0.0956
     52 H20         3.5345    3.5446    0.4892 H         1 <0>         0.0989
     53 H21         5.2538    3.1860    4.3912 H         1 <0>         0.1431
     54 H22         5.2620    1.7835    3.2954 H         1 <0>         0.1485
     55 H23         1.7312    4.2015    1.8401 H         1 <0>         0.0816
     56 H24         2.1326    4.9239    3.4165 H         1 <0>         0.0813
     57 H25         1.5336    1.5973    4.0889 H         1 <0>         0.1409
     58 H26        -0.5718    0.6827    5.0432 H         1 <0>         0.1389
     59 H27        -2.6329    2.0681    4.9228 H         1 <0>         0.1414
     60 H28        -2.5251    4.2979    3.8838 H         1 <0>         0.1637
     61 N4          6.6228    3.3362    2.8029 N.4       1 <0>        -0.3926
     62 H29         6.6360    4.3629    2.8093 H         1 <0>         0.4337
@<TRIPOS>BOND
     1    1    6 ar
     2    1    2 ar
     3    1   34 1
     4    2    3 ar
     5    2   35 1
     6    3    4 ar
     7    3   36 1
     8    4    5 ar
     9    4    7 1
    10    5    6 ar
    11    5   37 1
    12    6   38 1
    13    7    8 1
    14    7   14 1
    15    7   39 1
    16    8   13 ar
    17    8    9 ar
    18    9   10 ar
    19    9   40 1
    20   10   11 ar
    21   10   41 1
    22   11   12 ar
    23   11   42 1
    24   12   13 ar
    25   12   43 1
    26   13   44 1
    27   14   18 2
    28   14   15 1
    29   15   16 2
    30   16   17 1
    31   16   19 1
    32   17   18 1
    33   19   45 1
    34   19   46 1
    35   19   61 1
    36   20   21 1
    37   20   47 1
    38   20   48 1
    39   20   61 1
    40   21   22 1
    41   21   49 1
    42   21   50 1
    43   22   23 1
    44   22   51 1
    45   22   52 1
    46   23   24 1
    47   23   25 1
    48   23   26 1
    49   25   53 1
    50   25   54 1
    51   25   61 1
    52   26   27 1
    53   27   28 1
    54   27   55 1
    55   27   56 1
    56   28   33 ar
    57   28   29 ar
    58   29   30 ar
    59   29   57 1
    60   30   31 ar
    61   30   58 1
    62   31   32 ar
    63   31   59 1
    64   32   33 ar
    65   32   60 1
    66   61   62 1
@<TRIPOS>MOLECULE
ZINC15734838
   61    64     0     0     0
SMALL
USER_CHARGES
N-(2-dimethylaminoethyl)-N-(2-thienylmethyl)-1-[6-(2-thienyl)pyridazin-3-yl]piperidine-4-carboxamide
@<TRIPOS>ATOM
      1 C1          5.0651    6.2758   -6.3852 C.3       1 <0>        -0.0430
      2 C2          6.9241    4.9047   -5.6591 C.3       1 <0>        -0.0492
      3 C3          5.8523    6.4154   -4.0997 C.3       1 <0>        -0.0351
      4 C4          6.2344    5.5715   -2.8821 C.3       1 <0>         0.0799
      5 N1          6.4266    6.4461   -1.7226 N.am      1 <0>        -0.6093
      6 C5          7.7725    6.8974   -1.3607 C.3       1 <0>         0.1988
      7 C6          8.3921    5.9125   -0.4030 C.2       1 <0>        -0.1937
      8 C7          9.1419    4.8160   -0.6726 C.2       1 <0>        -0.1342
      9 C8          9.6110    4.0498    0.3779 C.2       1 <0>        -0.1713
     10 C9          9.3072    4.4176    1.6467 C.2       1 <0>        -0.1607
     11 S1          8.3353    5.8914    1.3812 S.3       1 <0>         0.0825
     12 C10         5.3652    6.8356   -0.9889 C.2       1 <0>         0.5180
     13 O1          5.5122    7.6288   -0.0833 O.2       1 <0>        -0.4892
     14 C11         3.9958    6.2854   -1.2938 C.3       1 <0>        -0.1073
     15 C12         2.9338    7.1419   -0.5988 C.3       1 <0>        -0.1057
     16 C13         1.5502    6.5432   -0.8618 C.3       1 <0>         0.0634
     17 N2          1.5059    5.1671   -0.3513 N.pl3     1 <0>        -0.4658
     18 C14         2.4848    4.3143   -1.0375 C.3       1 <0>         0.0604
     19 C15         3.8963    4.8465   -0.7797 C.3       1 <0>        -0.1117
     20 C16         0.2239    4.6377   -0.4557 C.ar      1 <0>         0.2450
     21 C17        -0.0314    3.3348   -0.0229 C.ar      1 <0>        -0.1222
     22 C18        -1.3200    2.8502   -0.1464 C.ar      1 <0>        -0.0863
     23 C19        -2.2891    3.6955   -0.7040 C.ar      1 <0>         0.1426
     24 N3         -1.9534    4.9232   -1.0825 N.ar      1 <0>        -0.2052
     25 N4         -0.7555    5.3691   -0.9660 N.ar      1 <0>        -0.2697
     26 C20        -3.6800    3.2245   -0.8644 C.2       1 <0>        -0.1352
     27 C21        -4.7618    3.8877   -1.3803 C.2       1 <0>        -0.0999
     28 C22        -5.9749    3.2375   -1.4299 C.2       1 <0>        -0.1654
     29 C23        -6.0623    1.9635   -0.9678 C.2       1 <0>        -0.1494
     30 S2         -4.3867    1.6398   -0.4437 S.3       1 <0>         0.0739
     31 H1          5.7243    7.0955   -6.6712 H         1 <0>         0.1253
     32 H2          4.9333    5.6030   -7.2326 H         1 <0>         0.1260
     33 H3          4.0968    6.6761   -6.0850 H         1 <0>         0.1225
     34 H4          7.3071    4.3083   -4.8311 H         1 <0>         0.1220
     35 H5          6.7528    4.2610   -6.5219 H         1 <0>         0.1265
     36 H6          7.6505    5.6747   -5.9188 H         1 <0>         0.1263
     37 H7          4.9272    6.9534   -3.8931 H         1 <0>         0.1321
     38 H8          6.6483    7.1294   -4.3112 H         1 <0>         0.1396
     39 H9          7.1596    5.0335   -3.0887 H         1 <0>         0.1073
     40 H10         5.4384    4.8575   -2.6706 H         1 <0>         0.1026
     41 H11         8.3864    6.9663   -2.2587 H         1 <0>         0.1012
     42 H12         7.7120    7.8768   -0.8860 H         1 <0>         0.1091
     43 H13         9.3698    4.5452   -1.6930 H         1 <0>         0.1266
     44 H14        10.2108    3.1714    0.1906 H         1 <0>         0.1357
     45 H15         9.5846    3.9441    2.5769 H         1 <0>         0.1888
     46 H16         3.8286    6.3007   -2.3708 H         1 <0>         0.0833
     47 H17         2.9714    8.1579   -0.9919 H         1 <0>         0.0834
     48 H18         3.1247    7.1596    0.4742 H         1 <0>         0.0922
     49 H19         1.3541    6.5392   -1.9340 H         1 <0>         0.0528
     50 H20         0.7932    7.1427   -0.3563 H         1 <0>         0.1003
     51 H21         2.4064    3.2949   -0.6596 H         1 <0>         0.0941
     52 H22         2.2843    4.3208   -2.1088 H         1 <0>         0.0477
     53 H23         4.6215    4.2225   -1.3019 H         1 <0>         0.0784
     54 H24         4.1026    4.8274    0.2905 H         1 <0>         0.0928
     55 H25         0.7546    2.7240    0.3960 H         1 <0>         0.1562
     56 H26        -1.5714    1.8495    0.1728 H         1 <0>         0.1543
     57 H27        -4.6652    4.9008   -1.7416 H         1 <0>         0.1445
     58 H28        -6.8458    3.7347   -1.8309 H         1 <0>         0.1432
     59 H29        -6.9230    1.3121   -0.9312 H         1 <0>         0.1942
     60 N5          5.6413    5.5176   -5.2547 N.4       1 <0>        -0.3953
     61 H30         4.9871    4.7740   -4.9840 H         1 <0>         0.4309
@<TRIPOS>BOND
     1    1   31 1
     2    1   32 1
     3    1   33 1
     4    1   60 1
     5    2   34 1
     6    2   35 1
     7    2   36 1
     8    2   60 1
     9    3    4 1
    10    3   37 1
    11    3   38 1
    12    3   60 1
    13    4    5 1
    14    4   39 1
    15    4   40 1
    16    5    6 1
    17    5   12 am
    18    6    7 1
    19    6   41 1
    20    6   42 1
    21    7   11 1
    22    7    8 2
    23    8    9 1
    24    8   43 1
    25    9   10 2
    26    9   44 1
    27   10   11 1
    28   10   45 1
    29   12   13 2
    30   12   14 1
    31   14   19 1
    32   14   15 1
    33   14   46 1
    34   15   16 1
    35   15   47 1
    36   15   48 1
    37   16   17 1
    38   16   49 1
    39   16   50 1
    40   17   18 1
    41   17   20 1
    42   18   19 1
    43   18   51 1
    44   18   52 1
    45   19   53 1
    46   19   54 1
    47   20   25 ar
    48   20   21 ar
    49   21   22 ar
    50   21   55 1
    51   22   23 ar
    52   22   56 1
    53   23   24 ar
    54   23   26 1
    55   24   25 ar
    56   26   30 1
    57   26   27 2
    58   27   28 1
    59   27   57 1
    60   28   29 2
    61   28   58 1
    62   29   30 1
    63   29   59 1
    64   60   61 1
@<TRIPOS>MOLECULE
ZINC32654855
   47    51     0     0     0
SMALL
USER_CHARGES
(NZ)-5-chloro-N-[4-(2-methylbenzofuran-3-yl)-3-phenyl-thiazol-2-ylidene]thiophene-2-sulfonamide
@<TRIPOS>ATOM
      1 C1          2.4235    0.0788    2.6812 C.3       1 <0>        -0.1094
      2 C2          1.5387    0.4188    1.5096 C.2       1 <0>         0.1266
      3 C3          1.2591   -0.4134    0.4787 C.2       1 <0>        -0.1936
      4 C4          0.3637    0.3415   -0.4179 C.ar      1 <0>        -0.1039
      5 C5         -0.2680    0.0559   -1.6251 C.ar      1 <0>        -0.0793
      6 C6         -1.0632    1.0108   -2.2204 C.ar      1 <0>        -0.1150
      7 C7         -1.2335    2.2504   -1.6212 C.ar      1 <0>        -0.0835
      8 C8         -0.6133    2.5446   -0.4263 C.ar      1 <0>        -0.0929
      9 C9          0.1924    1.5945    0.1902 C.ar      1 <0>         0.0565
     10 O1          0.9092    1.5938    1.3325 O.3       1 <0>        -0.1711
     11 C10         1.7504   -1.7959    0.2905 C.2       1 <0>         0.1730
     12 C11         3.0638   -2.0702    0.4140 C.2       1 <0>        -0.1641
     13 S1          3.1139   -3.8272    0.1010 S.3       1 <0>         0.2845
     14 C12         1.3692   -4.0797   -0.1842 C.cat     1 <0>         0.3895
     15 N1          0.7298   -5.1846   -0.4761 N.pl3     1 <0>        -0.9771
     16 S2          1.5624   -6.6082   -0.6257 S.o2      1 <0>         2.6834
     17 O2          2.4030   -6.4695   -1.7630 O.2       1 <0>        -0.8826
     18 O3          2.0711   -6.9187    0.6643 O.2       1 <0>        -0.8848
     19 C13         0.3867   -7.8606   -1.0182 C.2       1 <0>        -0.8062
     20 C14        -0.0423   -8.2771   -2.2342 C.2       1 <0>         0.0401
     21 C15        -0.9829   -9.2882   -2.3036 C.2       1 <0>        -0.1862
     22 C16        -1.4480   -9.8330   -1.1515 C.2       1 <0>        -0.0564
     23 S3         -0.5423   -8.9149    0.0830 S.3       1 <0>         0.2576
     24 Cl1        -2.6158  -11.0990   -0.9343 Cl        1 <0>         0.0637
     25 N2          0.8725   -2.8029   -0.0158 N.pl3     1 <0>        -0.3860
     26 C17        -0.4961   -2.5427   -0.1543 C.ar      1 <0>         0.0517
     27 C18        -1.1507   -1.7465    0.7765 C.ar      1 <0>        -0.0711
     28 C19        -2.4997   -1.4871    0.6339 C.ar      1 <0>        -0.0886
     29 C20        -3.2011   -2.0288   -0.4277 C.ar      1 <0>        -0.0779
     30 C21        -2.5534   -2.8266   -1.3531 C.ar      1 <0>        -0.0892
     31 C22        -1.2032   -3.0848   -1.2196 C.ar      1 <0>        -0.1354
     32 H1          2.8046   -0.9468    2.5674 H         1 <0>         0.0970
     33 H2          1.8431    0.1530    3.6127 H         1 <0>         0.1041
     34 H3          3.2686    0.7820    2.7187 H         1 <0>         0.1087
     35 H4         -0.1353   -0.9086   -2.0926 H         1 <0>         0.1190
     36 H5         -1.5552    0.7937   -3.1570 H         1 <0>         0.1353
     37 H6         -1.8588    2.9922   -2.0958 H         1 <0>         0.1443
     38 H7         -0.7535    3.5129    0.0312 H         1 <0>         0.1416
     39 H8          3.8780   -1.3991    0.6445 H         1 <0>         0.2472
     40 H9          0.3445   -7.8257   -3.1359 H         1 <0>         0.1663
     41 H10        -1.3419   -9.6386   -3.2600 H         1 <0>         0.1675
     42 H11        -0.6044   -1.3269    1.6083 H         1 <0>         0.1380
     43 H12        -3.0084   -0.8644    1.3549 H         1 <0>         0.1453
     44 H13        -4.2568   -1.8280   -0.5345 H         1 <0>         0.1452
     45 H14        -3.1038   -3.2479   -2.1813 H         1 <0>         0.1486
     46 H15        -0.6978   -3.7074   -1.9430 H         1 <0>         0.1350
     47 H16        -0.3604   -5.1671   -0.6219 H         1 <0>         0.4844
@<TRIPOS>BOND
     1    1    2 1
     2    1   32 1
     3    1   33 1
     4    1   34 1
     5    2   10 1
     6    2    3 2
     7    3    4 1
     8    3   11 1
     9    4    9 ar
    10    4    5 ar
    11    5    6 ar
    12    5   35 1
    13    6    7 ar
    14    6   36 1
    15    7    8 ar
    16    7   37 1
    17    8    9 ar
    18    8   38 1
    19    9   10 1
    20   11   25 1
    21   11   12 2
    22   12   13 1
    23   12   39 1
    24   13   14 1
    25   14   15 1
    26   14   25 2
    27   15   16 1
    28   15   47 1
    29   16   17 2
    30   16   18 2
    31   16   19 1
    32   19   23 1
    33   19   20 2
    34   20   21 1
    35   20   40 1
    36   21   22 2
    37   21   41 1
    38   22   23 1
    39   22   24 1
    40   25   26 1
    41   26   31 ar
    42   26   27 ar
    43   27   28 ar
    44   27   42 1
    45   28   29 ar
    46   28   43 1
    47   29   30 ar
    48   29   44 1
    49   30   31 ar
    50   30   45 1
    51   31   46 1
@<TRIPOS>MOLECULE
ZINC39834808
   65    68     0     0     0
SMALL
USER_CHARGES

@<TRIPOS>ATOM
      1 C1          0.6493    1.7711   -0.0206 C.3       1 <0>        -0.1913
      2 C2          0.1574    0.3240   -0.0902 C.3       1 <0>         0.0353
      3 N1          0.6589   -0.3038   -1.3152 N.pl3     1 <0>        -0.4235
      4 C3         -0.1285   -0.3693   -2.3861 C.2       1 <0>         0.1026
      5 C4          0.3421   -0.9549   -3.5271 C.2       1 <0>        -0.1664
      6 S1          1.9882   -1.4216   -3.0083 S.3       1 <0>         0.2682
      7 C5          1.8862   -0.7903   -1.3394 C.cat     1 <0>         0.3609
      8 N2          2.8418   -0.8083   -0.3357 N.pl3     1 <0>        -0.5565
      9 C6          4.1365   -1.2647   -0.6100 C.ar      1 <0>         0.0550
     10 C7          4.6983   -1.0499   -1.8618 C.ar      1 <0>        -0.0982
     11 C8          5.9757   -1.5000   -2.1313 C.ar      1 <0>        -0.1176
     12 C9          6.6975   -2.1669   -1.1523 C.ar      1 <0>         0.1581
     13 C10         6.1370   -2.3823    0.0981 C.ar      1 <0>        -0.1805
     14 C11         4.8621   -1.9274    0.3714 C.ar      1 <0>        -0.0635
     15 O1          7.9552   -2.6102   -1.4188 O.3       1 <0>        -0.3041
     16 C12         8.6408   -3.2889   -0.3646 C.3       1 <0>         0.0500
     17 C13        10.0301   -3.7098   -0.8477 C.3       1 <0>        -0.1567
     18 C14        -1.5024    0.1874   -2.3413 C.ar      1 <0>        -0.0170
     19 C15        -1.7573    1.3657   -1.6416 C.ar      1 <0>        -0.1494
     20 C16        -3.0377    1.8792   -1.6037 C.ar      1 <0>        -0.0128
     21 C17        -4.0671    1.2270   -2.2583 C.ar      1 <0>        -0.6541
     22 C18        -3.8199    0.0573   -2.9543 C.ar      1 <0>        -0.0099
     23 C19        -2.5425   -0.4627   -3.0035 C.ar      1 <0>        -0.0995
     24 S2         -5.6994    1.8883   -2.2050 S.o2      1 <0>         2.6769
     25 O2         -6.5854    0.8023   -2.4392 O.2       1 <0>        -0.9442
     26 O3         -5.7734    2.6935   -1.0366 O.2       1 <0>        -0.9414
     27 N3         -5.8549    2.9129   -3.4966 N.pl3     1 <0>        -0.9836
     28 C20        -5.5008    4.3040   -3.3243 C.3       1 <0>         0.1227
     29 C21        -6.7392    5.0995   -2.8426 C.3       1 <0>        -0.1411
     30 C22        -7.7191    5.2283   -3.9320 C.3       1 <0>        -0.1218
     31 C23        -8.2902    3.9017   -4.4237 C.3       1 <0>        -0.1195
     32 C24        -7.3618    3.3089   -5.4547 C.3       1 <0>        -0.1257
     33 C25        -6.3437    2.3671   -4.7780 C.3       1 <0>         0.1094
     34 H1          1.6910    1.7857    0.3001 H         1 <0>         0.0780
     35 H2          0.5657    2.2310   -1.0052 H         1 <0>         0.0849
     36 H3          0.0417    2.3275    0.6931 H         1 <0>         0.1090
     37 H4          0.5237   -0.2264    0.7764 H         1 <0>         0.1139
     38 H5         -0.9325    0.3106   -0.0950 H         1 <0>         0.1378
     39 H6         -0.1459   -1.0972   -4.4800 H         1 <0>         0.2386
     40 H7          4.1362   -0.5313   -2.6243 H         1 <0>         0.1361
     41 H8          6.4127   -1.3331   -3.1047 H         1 <0>         0.1526
     42 H9          6.6994   -2.9022    0.8595 H         1 <0>         0.1492
     43 H10         4.4276   -2.0910    1.3465 H         1 <0>         0.1429
     44 H11         8.7405   -2.6225    0.4922 H         1 <0>         0.0692
     45 H12         8.0742   -4.1733   -0.0729 H         1 <0>         0.0691
     46 H13        10.5530   -4.2275   -0.0436 H         1 <0>         0.0857
     47 H14         9.9304   -4.3763   -1.7045 H         1 <0>         0.0704
     48 H15        10.5967   -2.8255   -1.1393 H         1 <0>         0.0704
     49 H16        -0.9545    1.8755   -1.1298 H         1 <0>         0.1548
     50 H17        -3.2365    2.7919   -1.0615 H         1 <0>         0.1534
     51 H18        -4.6274   -0.4479   -3.4633 H         1 <0>         0.1560
     52 H19        -2.3499   -1.3737   -3.5506 H         1 <0>         0.1476
     53 H20        -4.7055    4.3870   -2.5835 H         1 <0>         0.0766
     54 H21        -5.1552    4.7110   -4.2745 H         1 <0>         0.0863
     55 H22        -7.1992    4.5776   -2.0034 H         1 <0>         0.0719
     56 H23        -6.4267    6.0924   -2.5191 H         1 <0>         0.0794
     57 H24        -8.5426    5.8522   -3.5847 H         1 <0>         0.0623
     58 H25        -7.2390    5.7309   -4.7716 H         1 <0>         0.0617
     59 H26        -8.3874    3.2140   -3.5836 H         1 <0>         0.0625
     60 H27        -9.2698    4.0709   -4.8708 H         1 <0>         0.0688
     61 H28        -7.9441    2.7471   -6.1850 H         1 <0>         0.0802
     62 H29        -6.8260    4.1110   -5.9624 H         1 <0>         0.0706
     63 H30        -5.4953    2.2183   -5.4459 H         1 <0>         0.0679
     64 H31        -6.8202    1.4042   -4.5938 H         1 <0>         0.0954
     65 H32         2.6135   -0.5047    0.5568 H         1 <0>         0.4361
@<TRIPOS>BOND
     1    1    2 1
     2    1   34 1
     3    1   35 1
     4    1   36 1
     5    2    3 1
     6    2   37 1
     7    2   38 1
     8    3    7 2
     9    3    4 1
    10    4    5 2
    11    4   18 1
    12    5    6 1
    13    5   39 1
    14    6    7 1
    15    7    8 1
    16    8    9 1
    17    8   65 1
    18    9   14 ar
    19    9   10 ar
    20   10   11 ar
    21   10   40 1
    22   11   12 ar
    23   11   41 1
    24   12   13 ar
    25   12   15 1
    26   13   14 ar
    27   13   42 1
    28   14   43 1
    29   15   16 1
    30   16   17 1
    31   16   44 1
    32   16   45 1
    33   17   46 1
    34   17   47 1
    35   17   48 1
    36   18   23 ar
    37   18   19 ar
    38   19   20 ar
    39   19   49 1
    40   20   21 ar
    41   20   50 1
    42   21   22 ar
    43   21   24 1
    44   22   23 ar
    45   22   51 1
    46   23   52 1
    47   24   25 2
    48   24   26 2
    49   24   27 1
    50   27   33 1
    51   27   28 1
    52   28   29 1
    53   28   53 1
    54   28   54 1
    55   29   30 1
    56   29   55 1
    57   29   56 1
    58   30   31 1
    59   30   57 1
    60   30   58 1
    61   31   32 1
    62   31   59 1
    63   31   60 1
    64   32   33 1
    65   32   61 1
    66   32   62 1
    67   33   63 1
    68   33   64 1
@<TRIPOS>MOLECULE
ZINC59935196
   55    56     0     0     0
SMALL
USER_CHARGES

@<TRIPOS>ATOM
      1 C1          0.8957    3.3147    1.3816 C.3       1 <0>        -0.1882
      2 C2          1.2208    1.8720    0.9895 C.3       1 <0>        -0.0186
      3 N1         -0.0151    1.0780    0.9757 N.4       1 <0>        -0.3827
      4 C3         -0.9057    1.5765   -0.0809 C.3       1 <0>        -0.0148
      5 C4         -2.2601    0.8721    0.0193 C.3       1 <0>        -0.1903
      6 C5          0.3109   -0.3308    0.7169 C.3       1 <0>        -0.0441
      7 C6          1.1266   -0.8885    1.8850 C.3       1 <0>         0.0816
      8 N2          1.3882   -2.3126    1.6622 N.am      1 <0>        -0.5542
      9 C7          2.5366   -2.7127    0.9743 C.ar      1 <0>         0.1198
     10 C8          2.4297   -3.2719   -0.2933 C.ar      1 <0>        -0.0907
     11 C9          3.5664   -3.6660   -0.9710 C.ar      1 <0>        -0.0959
     12 C10         4.8109   -3.5047   -0.3898 C.ar      1 <0>        -0.0754
     13 C11         4.9215   -2.9487    0.8724 C.ar      1 <0>        -0.0812
     14 C12         3.7881   -2.5470    1.5536 C.ar      1 <0>        -0.0866
     15 Br1         6.6256   -2.7311    1.6628 Br        1 <0>        -0.0268
     16 C13         0.5210   -3.2368    2.1207 C.2       1 <0>         0.5025
     17 O1          0.7791   -4.4180    2.0121 O.2       1 <0>        -0.4597
     18 C14        -0.7564   -2.8082    2.7619 C.2       1 <0>         0.4369
     19 O2         -1.7296   -2.5692    2.0762 O.2       1 <0>        -0.4393
     20 C15        -0.8365   -2.6753    4.2232 C.2       1 <0>        -0.3474
     21 C16         0.2306   -2.8224    5.1416 C.2       1 <0>         0.1292
     22 N3         -0.2413   -2.6295    6.3413 N.2       1 <0>        -0.2821
     23 N4         -1.6102   -2.3539    6.2546 N.pl3     1 <0>        -0.3471
     24 C17        -1.9701   -2.3763    4.9627 C.2       1 <0>         0.1840
     25 C18        -3.3522   -2.1266    4.4164 C.3       1 <0>        -0.1111
     26 C19        -2.5005   -2.0806    7.3854 C.3       1 <0>         0.0857
     27 C20         1.6607   -3.1456    4.7936 C.3       1 <0>        -0.0965
     28 H1          0.4438    3.3286    2.3734 H         1 <0>         0.0808
     29 H2          1.8127    3.9039    1.3918 H         1 <0>         0.1082
     30 H3          0.1990    3.7394    0.6589 H         1 <0>         0.0820
     31 H4          1.6727    1.8581   -0.0024 H         1 <0>         0.1332
     32 H5          1.9175    1.4473    1.7122 H         1 <0>         0.1302
     33 H6         -1.0452    2.6509    0.0386 H         1 <0>         0.1357
     34 H7         -0.4620    1.3740   -1.0556 H         1 <0>         0.1308
     35 H8         -2.9224    1.2451   -0.7619 H         1 <0>         0.1078
     36 H9         -2.1211   -0.2019   -0.1045 H         1 <0>         0.0826
     37 H10        -2.7018    1.0711    0.9957 H         1 <0>         0.0806
     38 H11        -0.6105   -0.9035    0.6111 H         1 <0>         0.1427
     39 H12         0.8931   -0.4063   -0.2015 H         1 <0>         0.1409
     40 H13         2.0728   -0.3521    1.9563 H         1 <0>         0.1162
     41 H14         0.5669   -0.7625    2.8119 H         1 <0>         0.1053
     42 H15         1.4582   -3.3986   -0.7479 H         1 <0>         0.1318
     43 H16         3.4834   -4.1009   -1.9560 H         1 <0>         0.1439
     44 H17         5.6983   -3.8138   -0.9221 H         1 <0>         0.1432
     45 H18         3.8750   -2.1087    2.5368 H         1 <0>         0.1386
     46 H19        -3.8979   -3.0687    4.3643 H         1 <0>         0.0988
     47 H20        -3.8824   -1.4354    5.0716 H         1 <0>         0.0829
     48 H21        -3.2760   -1.6951    3.4184 H         1 <0>         0.1036
     49 H22        -2.5147   -1.0093    7.5860 H         1 <0>         0.0886
     50 H23        -3.5084   -2.4184    7.1442 H         1 <0>         0.0983
     51 H24        -2.1410   -2.6107    8.2673 H         1 <0>         0.1037
     52 H25         2.1842   -2.2294    4.5202 H         1 <0>         0.0816
     53 H26         2.1503   -3.6007    5.6546 H         1 <0>         0.0915
     54 H27         1.6822   -3.8406    3.9541 H         1 <0>         0.0869
     55 H28        -0.4761    1.1578    1.8696 H         1 <0>         0.4222
@<TRIPOS>BOND
     1    1    2 1
     2    1   28 1
     3    1   29 1
     4    1   30 1
     5    2    3 1
     6    2   31 1
     7    2   32 1
     8    3    4 1
     9    3    6 1
    10    3   55 1
    11    4    5 1
    12    4   33 1
    13    4   34 1
    14    5   35 1
    15    5   36 1
    16    5   37 1
    17    6    7 1
    18    6   38 1
    19    6   39 1
    20    7    8 1
    21    7   40 1
    22    7   41 1
    23    8    9 1
    24    8   16 am
    25    9   14 ar
    26    9   10 ar
    27   10   11 ar
    28   10   42 1
    29   11   12 ar
    30   11   43 1
    31   12   13 ar
    32   12   44 1
    33   13   14 ar
    34   13   15 1
    35   14   45 1
    36   16   17 2
    37   16   18 1
    38   18   19 2
    39   18   20 1
    40   20   24 2
    41   20   21 1
    42   21   22 2
    43   21   27 1
    44   22   23 1
    45   23   24 1
    46   23   26 1
    47   24   25 1
    48   25   46 1
    49   25   47 1
    50   25   48 1
    51   26   49 1
    52   26   50 1
    53   26   51 1
    54   27   52 1
    55   27   53 1
    56   27   54 1
@<TRIPOS>MOLECULE
ZINC06003351
   49    51     0     0     0
SMALL
USER_CHARGES
(2-oxo-1,2-diphenyl-ethyl) 2-methyl-5-methylsulfonyl-benzoate
@<TRIPOS>ATOM
      1 C1         -8.7580    2.7303    2.0286 C.3       1 <0>        -0.1362
      2 C2         -8.5170    4.1319    1.5303 C.ar      1 <0>         0.0380
      3 C3         -9.5704    5.0154    1.4150 C.ar      1 <0>        -0.1519
      4 C4         -9.3507    6.3028    0.9586 C.ar      1 <0>         0.0163
      5 C5         -8.0748    6.7134    0.6142 C.ar      1 <0>        -0.6822
      6 C6         -7.0119    5.8421    0.7296 C.ar      1 <0>         0.0396
      7 C7         -7.2273    4.5395    1.1846 C.ar      1 <0>        -0.1506
      8 C8         -6.0945    3.5990    1.3054 C.2       1 <0>         0.5113
      9 O1         -6.2687    2.4970    1.7857 O.2       1 <0>        -0.4891
     10 O2         -4.8684    3.9635    0.8828 O.3       1 <0>        -0.3267
     11 C9         -3.8028    2.9886    1.0324 C.3       1 <0>         0.1112
     12 H1         -3.9903    2.4090    1.8254 H         1 <0>         0.1061
     13 C10        -3.7255    2.1347   -0.2069 C.ar      1 <0>        -0.1210
     14 C11        -3.8871    2.7096   -1.4536 C.ar      1 <0>        -0.0897
     15 C12        -3.8119    1.9269   -2.5906 C.ar      1 <0>        -0.1192
     16 C13        -3.5841    0.5679   -2.4804 C.ar      1 <0>        -0.1042
     17 C14        -3.4278   -0.0078   -1.2334 C.ar      1 <0>        -0.1192
     18 C15        -3.4987    0.7755   -0.0967 C.ar      1 <0>        -0.0934
     19 C16        -2.4916    3.7043    1.2319 C.2       1 <0>         0.4036
     20 O3         -2.3702    4.8573    0.8770 O.2       1 <0>        -0.4155
     21 C17        -1.3586    3.0037    1.8574 C.ar      1 <0>        -0.1642
     22 C18        -1.5269    1.7138    2.3711 C.ar      1 <0>        -0.0756
     23 C19        -0.4616    1.0659    2.9599 C.ar      1 <0>        -0.1288
     24 C20         0.7741    1.6847    3.0343 C.ar      1 <0>        -0.0823
     25 C21         0.9498    2.9592    2.5240 C.ar      1 <0>        -0.1293
     26 C22        -0.1068    3.6222    1.9364 C.ar      1 <0>        -0.0551
     27 S1         -7.8065    8.3554    0.0340 S.o2      1 <0>         2.4998
     28 O4         -6.6394    8.2689   -0.7721 O.2       1 <0>        -0.9300
     29 O5         -9.0497    8.7480   -0.5311 O.2       1 <0>        -0.9338
     30 C23        -7.4641    9.3272    1.5269 C.3       1 <0>        -0.6503
     31 H2         -8.5342    2.6800    3.0942 H         1 <0>         0.0879
     32 H3         -9.8009    2.4601    1.8632 H         1 <0>         0.0713
     33 H4         -8.1130    2.0368    1.4888 H         1 <0>         0.1004
     34 H5        -10.5686    4.7014    1.6821 H         1 <0>         0.1462
     35 H6        -10.1788    6.9906    0.8709 H         1 <0>         0.1516
     36 H7         -6.0159    6.1653    0.4651 H         1 <0>         0.1592
     37 H8         -4.0688    3.7707   -1.5395 H         1 <0>         0.1312
     38 H9         -3.9337    2.3768   -3.5648 H         1 <0>         0.1286
     39 H10        -3.5280   -0.0439   -3.3686 H         1 <0>         0.1271
     40 H11        -3.2498   -1.0696   -1.1474 H         1 <0>         0.1288
     41 H12        -3.3765    0.3257    0.8776 H         1 <0>         0.1258
     42 H13        -2.4895    1.2280    2.3101 H         1 <0>         0.1293
     43 H14        -0.5908    0.0711    3.3601 H         1 <0>         0.1327
     44 H15         1.6058    1.1703    3.4927 H         1 <0>         0.1308
     45 H16         1.9171    3.4355    2.5858 H         1 <0>         0.1332
     46 H17         0.0320    4.6164    1.5380 H         1 <0>         0.1368
     47 H18        -6.5819    8.9270    2.0267 H         1 <0>         0.1330
     48 H19        -7.2851   10.3664    1.2509 H         1 <0>         0.1358
     49 H20        -8.3194    9.2723    2.2003 H         1 <0>         0.1324
@<TRIPOS>BOND
     1    1    2 1
     2    1   31 1
     3    1   32 1
     4    1   33 1
     5    2    7 ar
     6    2    3 ar
     7    3    4 ar
     8    3   34 1
     9    4    5 ar
    10    4   35 1
    11    5    6 ar
    12    5   27 1
    13    6    7 ar
    14    6   36 1
    15    7    8 1
    16    8    9 2
    17    8   10 1
    18   10   11 1
    19   11   12 1
    20   11   13 1
    21   11   19 1
    22   13   18 ar
    23   13   14 ar
    24   14   15 ar
    25   14   37 1
    26   15   16 ar
    27   15   38 1
    28   16   17 ar
    29   16   39 1
    30   17   18 ar
    31   17   40 1
    32   18   41 1
    33   19   20 2
    34   19   21 1
    35   21   26 ar
    36   21   22 ar
    37   22   23 ar
    38   22   42 1
    39   23   24 ar
    40   23   43 1
    41   24   25 ar
    42   24   44 1
    43   25   26 ar
    44   25   45 1
    45   26   46 1
    46   27   28 2
    47   27   29 2
    48   27   30 1
    49   30   47 1
    50   30   48 1
    51   30   49 1
@<TRIPOS>MOLECULE
ZINC03435996
   39    40     0     0     0
SMALL
USER_CHARGES
(2-cyanoethyl-phenyl-carbamoyl)methyl 3-iodobenzoate
@<TRIPOS>ATOM
      1 C1          0.4238    5.2028    2.8911 C.ar      1 <0>        -0.1133
      2 C2          1.3211    4.1510    2.8624 C.ar      1 <0>        -0.1094
      3 C3          0.9520    2.9414    2.3072 C.ar      1 <0>        -0.1165
      4 C4         -0.3216    2.7823    1.7770 C.ar      1 <0>         0.1312
      5 C5         -1.2184    3.8423    1.8021 C.ar      1 <0>        -0.1012
      6 C6         -0.8451    5.0475    2.3639 C.ar      1 <0>        -0.1087
      7 N1         -0.6984    1.5583    1.2133 N.am      1 <0>        -0.5669
      8 C7         -0.0651    1.0957   -0.0240 C.3       1 <0>         0.1075
      9 C8         -0.8634    1.6036   -1.2264 C.3       1 <0>        -0.0467
     10 C9         -0.2270    1.1388   -2.4697 C.1       1 <0>         0.2009
     11 N2          0.2641    0.7801   -3.4292 N.1       1 <0>        -0.4151
     12 C10        -1.6441    0.8049    1.8088 C.2       1 <0>         0.5213
     13 O1         -2.2355    1.2292    2.7790 O.2       1 <0>        -0.4883
     14 C11        -1.9666   -0.5647    1.2692 C.3       1 <0>         0.0489
     15 O2         -3.0102   -1.1699    2.0773 O.3       1 <0>        -0.3265
     16 C12        -3.4172   -2.4050    1.7256 C.2       1 <0>         0.5150
     17 O3         -2.9141   -2.9611    0.7700 O.2       1 <0>        -0.4966
     18 C13        -4.4754   -3.0830    2.5021 C.ar      1 <0>        -0.1237
     19 C14        -5.0518   -2.4488    3.6047 C.ar      1 <0>        -0.0402
     20 C15        -6.0427   -3.0853    4.3225 C.ar      1 <0>        -0.1258
     21 C16        -6.4588   -4.3540    3.9590 C.ar      1 <0>        -0.0464
     22 C17        -5.8883   -4.9907    2.8705 C.ar      1 <0>        -0.1180
     23 C18        -4.8995   -4.3629    2.1403 C.ar      1 <0>        -0.0199
     24 I1         -6.5265   -6.9117    2.3306 I         1 <0>        -0.0231
     25 H1          0.7149    6.1476    3.3258 H         1 <0>         0.1267
     26 H2          2.3114    4.2754    3.2750 H         1 <0>         0.1287
     27 H3          1.6533    2.1203    2.2852 H         1 <0>         0.1264
     28 H4         -2.2082    3.7229    1.3869 H         1 <0>         0.1254
     29 H5         -1.5436    5.8709    2.3878 H         1 <0>         0.1286
     30 H6         -0.0440    0.0060   -0.0361 H         1 <0>         0.0967
     31 H7          0.9538    1.4794   -0.0761 H         1 <0>         0.1025
     32 H8         -1.8823    1.2199   -1.1743 H         1 <0>         0.1120
     33 H9         -0.8845    2.6934   -1.2144 H         1 <0>         0.1191
     34 H10        -2.3099   -0.4775    0.2383 H         1 <0>         0.1075
     35 H11        -1.0732   -1.1883    1.3031 H         1 <0>         0.1094
     36 H12        -4.7250   -1.4604    3.8924 H         1 <0>         0.1496
     37 H13        -6.4920   -2.5941    5.1730 H         1 <0>         0.1443
     38 H14        -7.2319   -4.8496    4.5273 H         1 <0>         0.1388
     39 H15        -4.4552   -4.8604    1.2909 H         1 <0>         0.1458
@<TRIPOS>BOND
     1    1    6 ar
     2    1    2 ar
     3    1   25 1
     4    2    3 ar
     5    2   26 1
     6    3    4 ar
     7    3   27 1
     8    4    5 ar
     9    4    7 1
    10    5    6 ar
    11    5   28 1
    12    6   29 1
    13    7    8 1
    14    7   12 am
    15    8    9 1
    16    8   30 1
    17    8   31 1
    18    9   10 1
    19    9   32 1
    20    9   33 1
    21   10   11 3
    22   12   13 2
    23   12   14 1
    24   14   15 1
    25   14   34 1
    26   14   35 1
    27   15   16 1
    28   16   17 2
    29   16   18 1
    30   18   23 ar
    31   18   19 ar
    32   19   20 ar
    33   19   36 1
    34   20   21 ar
    35   20   37 1
    36   21   22 ar
    37   21   38 1
    38   22   23 ar
    39   22   24 1
    40   23   39 1
@<TRIPOS>MOLECULE
ZINC19135495
   38    39     0     0     0
SMALL
USER_CHARGES
(5-bromo-2-methoxy-phenyl)methyl 2-chloro-5-methylsulfonyl-benzoate
@<TRIPOS>ATOM
      1 C1          2.3123   -0.3037   -0.0227 C.3       1 <0>         0.0241
      2 O1          2.3661    1.1243   -0.0150 O.3       1 <0>        -0.3117
      3 C2          1.1792    1.7863    0.0004 C.ar      1 <0>         0.1536
      4 C3         -0.0126    1.0758    0.0080 C.ar      1 <0>        -0.1994
      5 C4         -1.2177    1.7506    0.0173 C.ar      1 <0>        -0.0454
      6 C5         -1.2370    3.1340    0.0303 C.ar      1 <0>        -0.1278
      7 C6         -0.0500    3.8443    0.0233 C.ar      1 <0>        -0.0329
      8 C7          1.1576    3.1732    0.0081 C.ar      1 <0>        -0.1234
      9 C8          2.4504    3.9475    0.0004 C.3       1 <0>         0.1272
     10 O2          2.1624    5.3706    0.0108 O.3       1 <0>        -0.3514
     11 C9          3.2175    6.2082    0.0056 C.2       1 <0>         0.5081
     12 O3          4.3473    5.7619   -0.0072 O.2       1 <0>        -0.4744
     13 C10         3.0008    7.6686    0.0155 C.ar      1 <0>        -0.1385
     14 C11         1.7031    8.1854    0.0244 C.ar      1 <0>         0.0450
     15 C12         1.5079    9.5503    0.0385 C.ar      1 <0>        -0.6754
     16 C13         2.5938   10.4089    0.0337 C.ar      1 <0>         0.0234
     17 C14         3.8816    9.9058    0.0195 C.ar      1 <0>        -0.1399
     18 C15         4.0928    8.5406    0.0102 C.ar      1 <0>         0.0657
     19 Cl1         5.7102    7.9101   -0.0076 Cl        1 <0>        -0.0087
     20 S1         -0.1285   10.2035    0.0566 S.o2      1 <0>         2.4988
     21 O4         -0.9176    9.1880    0.6609 O.2       1 <0>        -0.9257
     22 O5         -0.0021   11.4812    0.6654 O.2       1 <0>        -0.9299
     23 C16        -0.5769   10.3860   -1.6916 C.3       1 <0>        -0.6495
     24 Br1        -2.8883    4.0552    0.0499 Br        1 <0>        -0.0415
     25 H1          1.7939   -0.6526    0.8704 H         1 <0>         0.0604
     26 H2          1.7765   -0.6424   -0.9094 H         1 <0>         0.0602
     27 H3          3.3256   -0.7054   -0.0348 H         1 <0>         0.1057
     28 H4          0.0021   -0.0041    0.0020 H         1 <0>         0.1422
     29 H5         -2.1456    1.1979    0.0187 H         1 <0>         0.1388
     30 H6         -0.0673    4.9241    0.0293 H         1 <0>         0.1498
     31 H7          3.0343    3.6885    0.8837 H         1 <0>         0.0918
     32 H8          3.0179    3.6981   -0.8962 H         1 <0>         0.0917
     33 H9          0.8545    7.5174    0.0241 H         1 <0>         0.1656
     34 H10         2.4342   11.4770    0.0406 H         1 <0>         0.1611
     35 H11         4.7241   10.5814    0.0155 H         1 <0>         0.1570
     36 H12        -0.5367    9.4126   -2.1805 H         1 <0>         0.1343
     37 H13        -1.5867   10.7892   -1.7675 H         1 <0>         0.1375
     38 H14         0.1233   11.0657   -2.1773 H         1 <0>         0.1337
@<TRIPOS>BOND
     1    1    2 1
     2    1   25 1
     3    1   26 1
     4    1   27 1
     5    2    3 1
     6    3    8 ar
     7    3    4 ar
     8    4    5 ar
     9    4   28 1
    10    5    6 ar
    11    5   29 1
    12    6    7 ar
    13    6   24 1
    14    7    8 ar
    15    7   30 1
    16    8    9 1
    17    9   10 1
    18    9   31 1
    19    9   32 1
    20   10   11 1
    21   11   12 2
    22   11   13 1
    23   13   18 ar
    24   13   14 ar
    25   14   15 ar
    26   14   33 1
    27   15   16 ar
    28   15   20 1
    29   16   17 ar
    30   16   34 1
    31   17   18 ar
    32   17   35 1
    33   18   19 1
    34   20   21 2
    35   20   22 2
    36   20   23 1
    37   23   36 1
    38   23   37 1
    39   23   38 1
@<TRIPOS>MOLECULE
ZINC26832109
   49    51     0     0     0
SMALL
USER_CHARGES
N-[3-(cyclopentoxy)phenyl]-2,2,2-trifluoro-N-(3-pyridylmethyl)ethanesulfonamide
@<TRIPOS>ATOM
      1 C1         -1.0249    5.1194    4.0517 C.ar      1 <0>        -0.0359
      2 C2          0.0855    5.0470    3.2328 C.ar      1 <0>        -0.1967
      3 C3          0.1376    4.1042    2.2136 C.ar      1 <0>         0.2066
      4 C4         -0.9230    3.2282    2.0260 C.ar      1 <0>        -0.1811
      5 C5         -2.0325    3.3008    2.8530 C.ar      1 <0>         0.1672
      6 C6         -2.0813    4.2482    3.8663 C.ar      1 <0>        -0.2304
      7 O1         -3.0726    2.4450    2.6718 O.3       1 <0>        -0.3146
      8 C7         -4.1450    2.5187    3.6134 C.3       1 <0>         0.0737
      9 C8         -3.8305    1.6407    4.8422 C.3       1 <0>        -0.1502
     10 C9         -5.2007    1.0324    5.2342 C.3       1 <0>        -0.1240
     11 C10        -5.8588    0.7564    3.8595 C.3       1 <0>        -0.1193
     12 C11        -5.4343    1.9570    2.9889 C.3       1 <0>        -0.1169
     13 N1          1.2580    4.0341    1.3825 N.pl3     1 <0>        -0.9239
     14 C12         1.1275    3.5129    0.0196 C.3       1 <0>         0.1387
     15 C13         0.6846    4.6204   -0.9015 C.ar      1 <0>        -0.1711
     16 C14        -0.6613    4.8083   -1.1771 C.ar      1 <0>        -0.0470
     17 C15        -1.0224    5.8400   -2.0298 C.ar      1 <0>        -0.1666
     18 C16        -0.0359    6.6414   -2.5730 C.ar      1 <0>         0.1081
     19 N2          1.2347    6.4334   -2.2884 N.ar      1 <0>        -0.4768
     20 C17         1.6147    5.4617   -1.4817 C.ar      1 <0>         0.0939
     21 S1          2.7338    4.5400    1.9378 S.o2      1 <0>         2.6089
     22 O2          2.6635    4.3838    3.3484 O.2       1 <0>        -0.9008
     23 O3          3.6800    3.8050    1.1738 O.2       1 <0>        -0.9101
     24 C18         2.8153    6.3003    1.5073 C.3       1 <0>        -0.7267
     25 C19         4.0593    6.9238    2.1435 C.3       1 <0>         0.4795
     26 F1          5.2026    6.2737    1.6666 F         1 <0>        -0.1682
     27 F2          4.1222    8.2814    1.8115 F         1 <0>        -0.1616
     28 F3          3.9906    6.7864    3.5340 F         1 <0>        -0.1632
     29 H1         -1.0653    5.8553    4.8411 H         1 <0>         0.1351
     30 H2          0.9118    5.7261    3.3826 H         1 <0>         0.1219
     31 H3         -0.8832    2.4915    1.2374 H         1 <0>         0.1385
     32 H4         -2.9463    4.3048    4.5105 H         1 <0>         0.1352
     33 H5         -4.2141    3.5902    3.8522 H         1 <0>         0.0802
     34 H6         -3.0999    0.8673    4.5629 H         1 <0>         0.0813
     35 H7         -3.4124    2.2677    5.6435 H         1 <0>         0.0722
     36 H8         -5.0406    0.1153    5.8201 H         1 <0>         0.0726
     37 H9         -5.7654    1.7588    5.8371 H         1 <0>         0.0707
     38 H10        -5.4844   -0.1971    3.4586 H         1 <0>         0.0715
     39 H11        -6.9507    0.6998    3.9804 H         1 <0>         0.0726
     40 H12        -6.2112    2.7357    2.9890 H         1 <0>         0.0798
     41 H13        -5.2330    1.6400    1.9550 H         1 <0>         0.0830
     42 H14         2.0986    3.1216   -0.3179 H         1 <0>         0.1239
     43 H15         0.3817    2.7044    0.0060 H         1 <0>         0.1146
     44 H16        -1.4105    4.1659   -0.7383 H         1 <0>         0.1398
     45 H17        -2.0614    6.0151   -2.2669 H         1 <0>         0.1407
     46 H18        -0.3089    7.4470   -3.2384 H         1 <0>         0.1610
     47 H19         2.6652    5.3192   -1.2756 H         1 <0>         0.1535
     48 H20         2.8693    6.4082    0.4139 H         1 <0>         0.1786
     49 H21         1.9163    6.8115    1.8822 H         1 <0>         0.1816
@<TRIPOS>BOND
     1    1    6 ar
     2    1    2 ar
     3    1   29 1
     4    2    3 ar
     5    2   30 1
     6    3    4 ar
     7    3   13 1
     8    4    5 ar
     9    4   31 1
    10    5    6 ar
    11    5    7 1
    12    6   32 1
    13    7    8 1
    14    8   12 1
    15    8    9 1
    16    8   33 1
    17    9   10 1
    18    9   34 1
    19    9   35 1
    20   10   11 1
    21   10   36 1
    22   10   37 1
    23   11   12 1
    24   11   38 1
    25   11   39 1
    26   12   40 1
    27   12   41 1
    28   13   14 1
    29   13   21 1
    30   14   15 1
    31   14   42 1
    32   14   43 1
    33   15   20 ar
    34   15   16 ar
    35   16   17 ar
    36   16   44 1
    37   17   18 ar
    38   17   45 1
    39   18   19 ar
    40   18   46 1
    41   19   20 ar
    42   20   47 1
    43   21   22 2
    44   21   23 2
    45   21   24 1
    46   24   25 1
    47   24   48 1
    48   24   49 1
    49   25   26 1
    50   25   27 1
    51   25   28 1
@<TRIPOS>MOLECULE
ZINC04929349
   48    49     0     0     0
SMALL
USER_CHARGES

@<TRIPOS>ATOM
      1 C1          1.0204   -3.1976   -2.1583 C.3       1 <0>        -0.1496
      2 C2          1.5038   -1.9352   -1.4415 C.3       1 <0>        -0.0368
      3 H1          0.6537   -1.2829   -1.2416 H         1 <0>         0.1214
      4 C3          2.1611   -2.3169   -0.1403 C.2       1 <0>         0.5166
      5 O1          2.9185   -3.2632   -0.0982 O.2       1 <0>        -0.5118
      6 N1          1.9073   -1.6067    0.9767 N.am      1 <0>        -0.5967
      7 C4          2.6213   -1.9144    2.2184 C.3       1 <0>         0.1502
      8 C5          1.9069   -3.0234    2.9470 C.ar      1 <0>        -0.0877
      9 C6          0.9842   -2.7202    3.9312 C.ar      1 <0>        -0.0898
     10 C7          0.3283   -3.7350    4.6009 C.ar      1 <0>        -0.0931
     11 C8          0.5957   -5.0591    4.2849 C.ar      1 <0>         0.0645
     12 C9          1.5216   -5.3606    3.2967 C.ar      1 <0>        -0.1222
     13 C10         2.1710   -4.3421    2.6263 C.ar      1 <0>        -0.0781
     14 O2         -0.0479   -6.0592    4.9426 O.3       1 <0>        -0.6563
     15 S1         -1.3523   -6.4913    4.2882 S.o2      1 <0>         2.6784
     16 O3         -1.9886   -7.3783    5.1978 O.2       1 <0>        -0.9246
     17 O4         -1.9797   -5.3081    3.8130 O.2       1 <0>        -0.9473
     18 C11        -0.9316   -7.4439    2.8669 C.ar      1 <0>        -0.7166
     19 C12        -0.7568   -6.8211    1.6450 C.ar      1 <0>         0.0156
     20 C13        -0.4264   -7.5672    0.5296 C.ar      1 <0>        -0.1735
     21 C14        -0.2704   -8.9389    0.6362 C.ar      1 <0>         0.1644
     22 C15        -0.4457   -9.5614    1.8604 C.ar      1 <0>        -0.1748
     23 C16        -0.7710   -8.8126    2.9755 C.ar      1 <0>         0.0163
     24 F1          0.0522   -9.6692   -0.4536 F         1 <0>        -0.1255
     25 C17         0.9175   -0.5270    0.9491 C.3       1 <0>         0.1192
     26 C18        -0.2673   -0.8984    1.8431 C.3       1 <0>        -0.1753
     27 C19         1.5576    0.7649    1.4613 C.3       1 <0>        -0.1667
     28 Cl1         2.6930   -1.0700   -2.4845 Cl        1 <0>        -0.1361
     29 H2          0.3014   -3.7206   -1.5278 H         1 <0>         0.0756
     30 H3          0.5450   -2.9215   -3.0995 H         1 <0>         0.0799
     31 H4          1.8704   -3.8499   -2.3583 H         1 <0>         0.0824
     32 H5          3.6381   -2.2295    1.9843 H         1 <0>         0.0979
     33 H6          2.6523   -1.0261    2.8493 H         1 <0>         0.0988
     34 H7          0.7764   -1.6893    4.1768 H         1 <0>         0.1426
     35 H8         -0.3917   -3.4977    5.3700 H         1 <0>         0.1426
     36 H9          1.7315   -6.3906    3.0489 H         1 <0>         0.1389
     37 H10         2.8886   -4.5762    1.8539 H         1 <0>         0.1493
     38 H11        -0.8788   -5.7513    1.5621 H         1 <0>         0.1487
     39 H12        -0.2902   -7.0806   -0.4248 H         1 <0>         0.1484
     40 H13        -0.3246  -10.6313    1.9447 H         1 <0>         0.1502
     41 H14        -0.9034   -9.2974    3.9315 H         1 <0>         0.1540
     42 H15         0.5692   -0.3794   -0.0731 H         1 <0>         0.0965
     43 H16         0.0538   -0.9128    2.8846 H         1 <0>         0.0693
     44 H17        -1.0616   -0.1624    1.7179 H         1 <0>         0.0727
     45 H18        -0.6383   -1.8844    1.5636 H         1 <0>         0.0639
     46 H19         2.3511    1.0721    0.7800 H         1 <0>         0.0647
     47 H20         0.8017    1.5483    1.5154 H         1 <0>         0.0750
     48 H21         1.9761    0.5946    2.4532 H         1 <0>         0.0645
@<TRIPOS>BOND
     1    1    2 1
     2    1   29 1
     3    1   30 1
     4    1   31 1
     5    2    3 1
     6    2    4 1
     7    2   28 1
     8    4    5 2
     9    4    6 am
    10    6    7 1
    11    6   25 1
    12    7    8 1
    13    7   32 1
    14    7   33 1
    15    8   13 ar
    16    8    9 ar
    17    9   10 ar
    18    9   34 1
    19   10   11 ar
    20   10   35 1
    21   11   12 ar
    22   11   14 1
    23   12   13 ar
    24   12   36 1
    25   13   37 1
    26   14   15 1
    27   15   16 2
    28   15   17 2
    29   15   18 1
    30   18   23 ar
    31   18   19 ar
    32   19   20 ar
    33   19   38 1
    34   20   21 ar
    35   20   39 1
    36   21   22 ar
    37   21   24 1
    38   22   23 ar
    39   22   40 1
    40   23   41 1
    41   25   26 1
    42   25   27 1
    43   25   42 1
    44   26   43 1
    45   26   44 1
    46   26   45 1
    47   27   46 1
    48   27   47 1
    49   27   48 1
@<TRIPOS>MOLECULE
ZINC09545177
   55    58     0     0     0
SMALL
USER_CHARGES
N-(4,5-dimethylbenzothiazol-2-yl)-3-phenylsulfonyl-N-(2-pyridylmethyl)propanamide
@<TRIPOS>ATOM
      1 C1          5.5369    7.1082    5.7492 C.3       1 <0>        -0.1175
      2 C2          5.0639    6.8802    4.3367 C.ar      1 <0>        -0.0775
      3 C3          5.9974    6.8069    3.3127 C.ar      1 <0>        -0.0956
      4 C4          5.5652    6.5970    2.0161 C.ar      1 <0>        -0.0651
      5 C5          4.2227    6.4665    1.7622 C.ar      1 <0>        -0.1495
      6 C6          3.2435    6.5361    2.7793 C.ar      1 <0>         0.1049
      7 C7          3.7218    6.7504    4.0928 C.ar      1 <0>        -0.0316
      8 C8          2.7447    6.8375    5.2368 C.3       1 <0>        -0.1160
      9 N1          1.9642    6.3940    2.3705 N.2       1 <0>        -0.5017
     10 C9          1.6433    6.1924    1.1138 C.2       1 <0>         0.3735
     11 S1          3.2386    6.1960    0.3079 S.3       1 <0>        -0.0041
     12 N2          0.3873    6.0253    0.5537 N.am      1 <0>        -0.5069
     13 C10         0.2508    5.8165   -0.8899 C.3       1 <0>         0.1500
     14 C11         0.1217    7.1498   -1.5803 C.ar      1 <0>         0.0867
     15 C12         1.2446    7.7550   -2.1128 C.ar      1 <0>        -0.1478
     16 C13         1.1140    8.9790   -2.7504 C.ar      1 <0>        -0.0707
     17 C14        -0.1450    9.5562   -2.8196 C.ar      1 <0>        -0.1584
     18 C15        -1.2217    8.8920   -2.2637 C.ar      1 <0>         0.1058
     19 N3         -1.0611    7.7258   -1.6691 N.ar      1 <0>        -0.4713
     20 C16        -0.7092    6.0548    1.3369 C.2       1 <0>         0.5272
     21 O1         -0.6053    6.3200    2.5157 O.2       1 <0>        -0.4578
     22 C17        -2.0642    5.7583    0.7478 C.3       1 <0>        -0.1372
     23 C18        -3.1418    5.9774    1.8116 C.3       1 <0>        -0.5971
     24 S2         -4.7729    5.6205    1.1024 S.o2      1 <0>         2.4988
     25 O2         -5.1019    6.5916    0.1186 O.2       1 <0>        -0.9266
     26 O3         -4.8903    4.2331    0.8187 O.2       1 <0>        -0.9316
     27 C19        -5.9108    5.9085    2.4165 C.ar      1 <0>        -0.6602
     28 C20        -6.2589    4.8766    3.2680 C.ar      1 <0>        -0.0239
     29 C21        -7.1479    5.1037    4.3019 C.ar      1 <0>        -0.1395
     30 C22        -7.6966    6.3602    4.4782 C.ar      1 <0>        -0.0629
     31 C23        -7.3528    7.3907    3.6233 C.ar      1 <0>        -0.1397
     32 C24        -6.4598    7.1649    2.5926 C.ar      1 <0>        -0.0235
     33 H1          5.6244    6.1505    6.2622 H         1 <0>         0.0748
     34 H2          6.5090    7.6011    5.7318 H         1 <0>         0.0698
     35 H3          4.8196    7.7380    6.2754 H         1 <0>         0.0734
     36 H4          7.0509    6.9120    3.5263 H         1 <0>         0.1394
     37 H5          6.2794    6.5372    1.2082 H         1 <0>         0.1340
     38 H6          2.6584    5.8623    5.7160 H         1 <0>         0.0729
     39 H7          3.0995    7.5690    5.9628 H         1 <0>         0.0710
     40 H8          1.7693    7.1442    4.8590 H         1 <0>         0.0778
     41 H9         -0.6378    5.2172   -1.0880 H         1 <0>         0.1258
     42 H10         1.1314    5.2961   -1.2666 H         1 <0>         0.1123
     43 H11         2.2106    7.2781   -2.0371 H         1 <0>         0.1372
     44 H12         1.9731    9.4731   -3.1797 H         1 <0>         0.1401
     45 H13        -0.2830   10.5106   -3.3058 H         1 <0>         0.1408
     46 H14        -2.2062    9.3329   -2.3169 H         1 <0>         0.1648
     47 H15        -2.2467    6.4231   -0.0965 H         1 <0>         0.1354
     48 H16        -2.0941    4.7230    0.4081 H         1 <0>         0.1191
     49 H17        -2.9594    5.3126    2.6559 H         1 <0>         0.1455
     50 H18        -3.1119    7.0127    2.1512 H         1 <0>         0.1442
     51 H19        -5.8334    3.8939    3.1277 H         1 <0>         0.1430
     52 H20        -7.4167    4.2986    4.9696 H         1 <0>         0.1349
     53 H21        -8.3940    6.5368    5.2837 H         1 <0>         0.1326
     54 H22        -7.7817    8.3723    3.7608 H         1 <0>         0.1347
     55 H23        -6.1913    7.9700    1.9247 H         1 <0>         0.1429
@<TRIPOS>BOND
     1    1    2 1
     2    1   33 1
     3    1   34 1
     4    1   35 1
     5    2    7 ar
     6    2    3 ar
     7    3    4 ar
     8    3   36 1
     9    4    5 ar
    10    4   37 1
    11    5   11 1
    12    5    6 ar
    13    6    7 ar
    14    6    9 1
    15    7    8 1
    16    8   38 1
    17    8   39 1
    18    8   40 1
    19    9   10 2
    20   10   11 1
    21   10   12 1
    22   12   13 1
    23   12   20 am
    24   13   14 1
    25   13   41 1
    26   13   42 1
    27   14   19 ar
    28   14   15 ar
    29   15   16 ar
    30   15   43 1
    31   16   17 ar
    32   16   44 1
    33   17   18 ar
    34   17   45 1
    35   18   19 ar
    36   18   46 1
    37   20   21 2
    38   20   22 1
    39   22   23 1
    40   22   47 1
    41   22   48 1
    42   23   24 1
    43   23   49 1
    44   23   50 1
    45   24   25 2
    46   24   26 2
    47   24   27 1
    48   27   32 ar
    49   27   28 ar
    50   28   29 ar
    51   28   51 1
    52   29   30 ar
    53   29   52 1
    54   30   31 ar
    55   30   53 1
    56   31   32 ar
    57   31   54 1
    58   32   55 1
@<TRIPOS>MOLECULE
ZINC09708685
   49    52     0     0     0
SMALL
USER_CHARGES
N-(4,6-difluoro-1,3-benzothiazol-2-yl)-3-ethylsulfonyl-N-(2-pyridylmethyl)benzamide
@<TRIPOS>ATOM
      1 C1          7.5043    3.8781   -4.1971 C.3       1 <0>        -0.1515
      2 C2          6.2301    3.8773   -3.3501 C.3       1 <0>        -0.6055
      3 S1          6.0541    5.4811   -2.5210 S.o2      1 <0>         2.4927
      4 O1          5.7944    6.5002   -3.4766 O.2       1 <0>        -0.9281
      5 O2          7.0769    5.6440   -1.5481 O.2       1 <0>        -0.9289
      6 C3          4.5645    5.3482   -1.5894 C.ar      1 <0>        -0.6634
      7 C4          4.6037    4.8802   -0.2876 C.ar      1 <0>         0.0083
      8 C5          3.4388    4.7727    0.4508 C.ar      1 <0>        -0.1360
      9 C6          2.2291    5.1320   -0.1071 C.ar      1 <0>        -0.0550
     10 C7          2.1824    5.6048   -1.4195 C.ar      1 <0>        -0.1488
     11 C8          3.3612    5.7058   -2.1610 C.ar      1 <0>         0.0367
     12 C9          0.8901    5.9910   -2.0238 C.2       1 <0>         0.5679
     13 O3          0.6250    5.6513   -3.1603 O.2       1 <0>        -0.4774
     14 N1          0.0057    6.7199   -1.3146 N.am      1 <0>        -0.4941
     15 C10         0.3584    7.2002    0.0238 C.3       1 <0>         0.1450
     16 C11        -0.6691    6.7208    1.0165 C.ar      1 <0>         0.0924
     17 C12        -0.4233    5.5797    1.7569 C.ar      1 <0>        -0.1701
     18 C13        -1.3748    5.1475    2.6677 C.ar      1 <0>        -0.0762
     19 C14        -2.5433    5.8824    2.8003 C.ar      1 <0>        -0.1609
     20 C15        -2.7217    7.0099    2.0216 C.ar      1 <0>         0.1035
     21 N2         -1.7920    7.3949    1.1690 N.ar      1 <0>        -0.4150
     22 C16        -1.2367    7.0149   -1.8511 C.2       1 <0>         0.3535
     23 N3         -2.2222    7.6978   -1.3181 N.2       1 <0>        -0.4810
     24 C17        -3.3894    7.9139   -1.9650 C.ar      1 <0>         0.0610
     25 C18        -4.5213    8.6317   -1.5086 C.ar      1 <0>         0.1887
     26 C19        -5.6390    8.7521   -2.2953 C.ar      1 <0>        -0.1841
     27 C20        -5.7011    8.1785   -3.5593 C.ar      1 <0>         0.1460
     28 C21        -4.6114    7.4699   -4.0357 C.ar      1 <0>        -0.1037
     29 C22        -3.4889    7.3450   -3.2541 C.ar      1 <0>        -0.1386
     30 S2         -1.9083    6.5556   -3.4424 S.3       1 <0>         0.1183
     31 F1         -6.8128    8.3113   -4.3154 F         1 <0>        -0.1192
     32 F2         -4.5005    9.2043   -0.2851 F         1 <0>        -0.1125
     33 H1          7.6101    2.9144   -4.6952 H         1 <0>         0.0876
     34 H2          7.4431    4.6689   -4.9448 H         1 <0>         0.0760
     35 H3          8.3675    4.0516   -3.5546 H         1 <0>         0.0757
     36 H4          6.2914    3.0865   -2.6024 H         1 <0>         0.1371
     37 H5          5.3669    3.7037   -3.9926 H         1 <0>         0.1379
     38 H6          5.5480    4.5973    0.1537 H         1 <0>         0.1541
     39 H7          3.4763    4.4065    1.4661 H         1 <0>         0.1489
     40 H8          1.3204    5.0473    0.4704 H         1 <0>         0.1489
     41 H9          3.3313    6.0666   -3.1785 H         1 <0>         0.1565
     42 H10         0.3830    8.2899    0.0239 H         1 <0>         0.1106
     43 H11         1.3394    6.8145    0.3013 H         1 <0>         0.1233
     44 H12         0.4982    5.0317    1.6272 H         1 <0>         0.1351
     45 H13        -1.2102    4.2593    3.2597 H         1 <0>         0.1379
     46 H14        -3.3062    5.5750    3.5002 H         1 <0>         0.1375
     47 H15        -3.6310    7.5850    2.1154 H         1 <0>         0.1571
     48 H16        -6.4891    9.3052   -1.9239 H         1 <0>         0.1593
     49 H17        -4.6440    7.0178   -5.0159 H         1 <0>         0.1525
@<TRIPOS>BOND
     1    1    2 1
     2    1   33 1
     3    1   34 1
     4    1   35 1
     5    2    3 1
     6    2   36 1
     7    2   37 1
     8    3    4 2
     9    3    5 2
    10    3    6 1
    11    6   11 ar
    12    6    7 ar
    13    7    8 ar
    14    7   38 1
    15    8    9 ar
    16    8   39 1
    17    9   10 ar
    18    9   40 1
    19   10   11 ar
    20   10   12 1
    21   11   41 1
    22   12   13 2
    23   12   14 am
    24   14   15 1
    25   14   22 1
    26   15   16 1
    27   15   42 1
    28   15   43 1
    29   16   21 ar
    30   16   17 ar
    31   17   18 ar
    32   17   44 1
    33   18   19 ar
    34   18   45 1
    35   19   20 ar
    36   19   46 1
    37   20   21 ar
    38   20   47 1
    39   22   30 1
    40   22   23 2
    41   23   24 1
    42   24   29 ar
    43   24   25 ar
    44   25   26 ar
    45   25   32 1
    46   26   27 ar
    47   26   48 1
    48   27   28 ar
    49   27   31 1
    50   28   29 ar
    51   28   49 1
    52   29   30 1
@<TRIPOS>MOLECULE
ZINC22605555
   55    58     0     0     0
SMALL
USER_CHARGES
1-[[4-(4-fluorophenyl)thiazol-2-yl]methyl]-4-(4-methoxy-3-methyl-phenyl)sulfonyl-piperazine
@<TRIPOS>ATOM
      1 C1         -3.5618    0.4619    3.7291 C.3       1 <0>        -0.1079
      2 C2         -2.5600    1.4087    3.1199 C.ar      1 <0>        -0.1339
      3 C3         -1.8455    1.0320    1.9989 C.ar      1 <0>         0.0151
      4 C4         -0.9267    1.9002    1.4394 C.ar      1 <0>        -0.7116
      5 C5         -0.7162    3.1453    2.0031 C.ar      1 <0>         0.0149
      6 C6         -1.4320    3.5289    3.1204 C.ar      1 <0>        -0.2253
      7 C7         -2.3547    2.6593    3.6839 C.ar      1 <0>         0.1819
      8 O1         -3.0566    3.0323    4.7862 O.3       1 <0>        -0.3061
      9 C8         -2.7935    4.3344    5.3129 C.3       1 <0>         0.0182
     10 S1         -0.0172    1.4168    0.0098 S.o2      1 <0>         2.6929
     11 O2          0.0021   -0.0041    0.0020 O.2       1 <0>        -0.9533
     12 O3          1.1718    2.1948    0.0027 O.2       1 <0>        -0.9541
     13 N1         -0.8975    1.8855   -1.3122 N.pl3     1 <0>        -0.9994
     14 C9         -1.8873    0.9824   -1.9189 C.3       1 <0>         0.1249
     15 C10        -3.2146    1.7449   -2.0568 C.3       1 <0>         0.0390
     16 N2         -2.9813    2.9945   -2.7930 N.3       1 <0>        -0.5267
     17 C11        -2.0756    3.8859   -2.0562 C.3       1 <0>         0.0408
     18 C12        -0.7059    3.2135   -1.9145 C.3       1 <0>         0.1246
     19 C13        -4.2495    3.6692   -3.1000 C.3       1 <0>         0.1415
     20 C14        -5.2380    2.6634   -3.6312 C.2       1 <0>         0.0933
     21 N3         -6.1031    1.9342   -2.9694 N.2       1 <0>        -0.4985
     22 C15        -6.9106    1.0876   -3.5889 C.2       1 <0>         0.0991
     23 C16        -6.8168    0.9934   -4.9513 C.2       1 <0>        -0.2062
     24 S2         -5.5237    2.1833   -5.2750 S.3       1 <0>         0.0890
     25 C17        -7.8867    0.2671   -2.8305 C.ar      1 <0>        -0.0352
     26 C18        -8.0348    0.4493   -1.4568 C.ar      1 <0>        -0.0569
     27 C19        -8.9470   -0.3130   -0.7563 C.ar      1 <0>        -0.1552
     28 C20        -9.7077   -1.2654   -1.4147 C.ar      1 <0>         0.1057
     29 C21        -9.5603   -1.4533   -2.7794 C.ar      1 <0>        -0.1525
     30 C22        -8.6540   -0.6921   -3.4888 C.ar      1 <0>        -0.0750
     31 F1        -10.5956   -2.0135   -0.7239 F         1 <0>        -0.1371
     32 H1         -3.5843   -0.4718    3.1480 H         1 <0>         0.0700
     33 H2         -4.5592    0.9257    3.7167 H         1 <0>         0.0723
     34 H3         -3.2731    0.2408    4.7672 H         1 <0>         0.0731
     35 H4         -2.0047    0.0583    1.5597 H         1 <0>         0.1447
     36 H5          0.0054    3.8201    1.5667 H         1 <0>         0.1417
     37 H6         -1.2704    4.5031    3.5576 H         1 <0>         0.1390
     38 H7         -3.4244    4.5065    6.1974 H         1 <0>         0.1079
     39 H8         -3.0198    5.0919    4.5480 H         1 <0>         0.0609
     40 H9         -1.7338    4.4071    5.5987 H         1 <0>         0.0618
     41 H10        -1.5320    0.6610   -2.9091 H         1 <0>         0.0855
     42 H11        -2.0233    0.1014   -1.2745 H         1 <0>         0.0952
     43 H12        -3.9389    1.1241   -2.6046 H         1 <0>         0.0894
     44 H13        -3.6111    1.9748   -1.0568 H         1 <0>         0.0476
     45 H14        -1.9656    4.8325   -2.6056 H         1 <0>         0.0955
     46 H15        -2.4914    4.0876   -1.0580 H         1 <0>         0.0457
     47 H16        -0.0556    3.8196   -1.2666 H         1 <0>         0.0972
     48 H17        -0.2378    3.1034   -2.9038 H         1 <0>         0.0880
     49 H18        -4.6507    4.1296   -2.1851 H         1 <0>         0.0737
     50 H19        -4.0765    4.4483   -3.8570 H         1 <0>         0.1096
     51 H20        -7.3735    0.3751   -5.6399 H         1 <0>         0.1997
     52 H21        -7.4390    1.1885   -0.9420 H         1 <0>         0.1410
     53 H22        -9.0651   -0.1699    0.3077 H         1 <0>         0.1385
     54 H23       -10.1554   -2.1968   -3.2887 H         1 <0>         0.1404
     55 H24        -8.5393   -0.8397   -4.5525 H         1 <0>         0.1353
@<TRIPOS>BOND
     1    1    2 1
     2    1   32 1
     3    1   33 1
     4    1   34 1
     5    2    7 ar
     6    2    3 ar
     7    3    4 ar
     8    3   35 1
     9    4    5 ar
    10    4   10 1
    11    5    6 ar
    12    5   36 1
    13    6    7 ar
    14    6   37 1
    15    7    8 1
    16    8    9 1
    17    9   38 1
    18    9   39 1
    19    9   40 1
    20   10   11 2
    21   10   12 2
    22   10   13 1
    23   13   18 1
    24   13   14 1
    25   14   15 1
    26   14   41 1
    27   14   42 1
    28   15   16 1
    29   15   43 1
    30   15   44 1
    31   16   17 1
    32   16   19 1
    33   17   18 1
    34   17   45 1
    35   17   46 1
    36   18   47 1
    37   18   48 1
    38   19   20 1
    39   19   49 1
    40   19   50 1
    41   20   24 1
    42   20   21 2
    43   21   22 1
    44   22   23 2
    45   22   25 1
    46   23   24 1
    47   23   51 1
    48   25   30 ar
    49   25   26 ar
    50   26   27 ar
    51   26   52 1
    52   27   28 ar
    53   27   53 1
    54   28   29 ar
    55   28   31 1
    56   29   30 ar
    57   29   54 1
    58   30   55 1
@<TRIPOS>MOLECULE
ZINC35614785
   56    59     0     0     0
SMALL
USER_CHARGES

@<TRIPOS>ATOM
      1 C1          0.1448   -6.1464   -2.0546 C.3       1 <0>        -0.1242
      2 C2         -0.0557   -4.6910   -1.6272 C.3       1 <0>        -0.0603
      3 H1          0.7895   -4.3360   -1.0376 H         1 <0>         0.1337
      4 C3         -1.3646   -4.5142   -0.8742 C.2       1 <0>         0.5075
      5 O1         -1.6794   -5.2657    0.0241 O.2       1 <0>        -0.4916
      6 N1         -2.1502   -3.5081   -1.2360 N.am      1 <0>        -0.6029
      7 C4         -1.7219   -2.6172   -2.3310 C.3       1 <0>         0.2497
      8 H2         -1.3513   -1.6688   -1.9420 H         1 <0>         0.1156
      9 S1         -0.3560   -3.6021   -3.0863 S.3       1 <0>        -0.2511
     10 C5         -2.8399   -2.3947   -3.3166 C.2       1 <0>        -0.1425
     11 C6         -3.2416   -1.1133   -3.6442 C.2       1 <0>        -0.1430
     12 C7         -4.2504   -0.9479   -4.5343 C.2       1 <0>        -0.1687
     13 S2         -4.6657   -2.6363   -4.9395 S.3       1 <0>         0.0643
     14 C8         -3.4629   -3.4480   -3.8995 C.2       1 <0>        -0.1244
     15 C9         -3.4285   -3.2848   -0.5562 C.3       1 <0>         0.0891
     16 C10        -3.2027   -2.4140    0.6814 C.3       1 <0>         0.1076
     17 N2         -4.4943   -2.0864    1.2902 N.pl3     1 <0>        -0.9796
     18 C11        -5.2637   -0.9388    0.8031 C.3       1 <0>         0.1398
     19 C12        -4.4163    0.3298    0.9194 C.3       1 <0>        -0.1606
     20 C13        -5.6450   -1.1649   -0.6613 C.3       1 <0>        -0.1643
     21 S3         -5.0846   -3.0132    2.5291 S.o2      1 <0>         2.6915
     22 O2         -6.5016   -2.9623    2.4349 O.2       1 <0>        -0.9612
     23 O3         -4.3628   -4.2369    2.5004 O.2       1 <0>        -0.9252
     24 C14        -4.6507   -2.2077    4.0349 C.ar      1 <0>        -0.6639
     25 C15        -5.6226   -1.7197    4.8533 C.ar      1 <0>         0.0212
     26 C16        -5.3017   -1.0796    6.0483 C.ar      1 <0>        -0.1472
     27 C17        -4.0041   -0.9241    6.4311 C.ar      1 <0>        -0.0337
     28 C18        -2.9754   -1.4155    5.6118 C.ar      1 <0>        -0.1247
     29 C19        -3.2997   -2.0718    4.3983 C.ar      1 <0>         0.2054
     30 N3         -2.3239   -2.5452    3.6167 N.ar      1 <0>        -0.4843
     31 C20        -1.0625   -2.4208    3.9507 C.ar      1 <0>         0.1599
     32 C21        -0.6755   -1.7915    5.1321 C.ar      1 <0>        -0.1805
     33 C22        -1.6215   -1.2749    5.9709 C.ar      1 <0>        -0.0420
     34 H3          1.0559   -6.2288   -2.6472 H         1 <0>         0.0752
     35 H4          0.2289   -6.7767   -1.1694 H         1 <0>         0.0845
     36 H5         -0.7075   -6.4704   -2.6518 H         1 <0>         0.0697
     37 H6         -2.7592   -0.2566   -3.1973 H         1 <0>         0.1373
     38 H7         -4.6894   -0.0324   -4.9025 H         1 <0>         0.1894
     39 H8         -3.2799   -4.5042   -3.7680 H         1 <0>         0.1869
     40 H9         -4.1175   -2.7810   -1.2342 H         1 <0>         0.0970
     41 H10        -3.8516   -4.2428   -0.2541 H         1 <0>         0.0924
     42 H11        -2.5893   -2.9568    1.4005 H         1 <0>         0.1147
     43 H12        -2.6943   -1.4946    0.3909 H         1 <0>         0.0761
     44 H13        -6.1682   -0.8275    1.4010 H         1 <0>         0.0967
     45 H14        -3.5626    0.2595    0.2453 H         1 <0>         0.0611
     46 H15        -5.0206    1.1963    0.6511 H         1 <0>         0.0693
     47 H16        -4.0619    0.4373    1.9446 H         1 <0>         0.0569
     48 H17        -6.1260   -2.1375   -0.7655 H         1 <0>         0.0634
     49 H18        -6.3331   -0.3830   -0.9825 H         1 <0>         0.0704
     50 H19        -4.7475   -1.1354   -1.2791 H         1 <0>         0.0651
     51 H20        -6.6593   -1.8303    4.5716 H         1 <0>         0.1508
     52 H21        -6.0924   -0.7012    6.6792 H         1 <0>         0.1412
     53 H22        -3.7677   -0.4255    7.3595 H         1 <0>         0.1400
     54 H23        -0.3030   -2.8168    3.2929 H         1 <0>         0.1649
     55 H24         0.3721   -1.7046    5.3801 H         1 <0>         0.1437
     56 H25        -1.3393   -0.7831    6.8901 H         1 <0>         0.1437
@<TRIPOS>BOND
     1    1    2 1
     2    1   34 1
     3    1   35 1
     4    1   36 1
     5    2    3 1
     6    2    9 1
     7    2    4 1
     8    4    5 2
     9    4    6 am
    10    6    7 1
    11    6   15 1
    12    7    8 1
    13    7    9 1
    14    7   10 1
    15   10   14 2
    16   10   11 1
    17   11   12 2
    18   11   37 1
    19   12   13 1
    20   12   38 1
    21   13   14 1
    22   14   39 1
    23   15   16 1
    24   15   40 1
    25   15   41 1
    26   16   17 1
    27   16   42 1
    28   16   43 1
    29   17   18 1
    30   17   21 1
    31   18   19 1
    32   18   20 1
    33   18   44 1
    34   19   45 1
    35   19   46 1
    36   19   47 1
    37   20   48 1
    38   20   49 1
    39   20   50 1
    40   21   22 2
    41   21   23 2
    42   21   24 1
    43   24   29 ar
    44   24   25 ar
    45   25   26 ar
    46   25   51 1
    47   26   27 ar
    48   26   52 1
    49   27   28 ar
    50   27   53 1
    51   28   33 ar
    52   28   29 ar
    53   29   30 ar
    54   30   31 ar
    55   31   32 ar
    56   31   54 1
    57   32   33 ar
    58   32   55 1
    59   33   56 1
@<TRIPOS>MOLECULE
ZINC47132988
   53    56     0     0     0
SMALL
USER_CHARGES

@<TRIPOS>ATOM
      1 C1          0.2057    1.5168   -0.1803 C.3       1 <0>        -0.1258
      2 C2          0.2198   -0.0131   -0.1798 C.3       1 <0>        -0.1353
      3 H1         -0.6456   -0.4914   -0.6384 H         1 <0>         0.1145
      4 C3          1.5746   -0.7072   -0.3336 C.3       1 <0>        -0.1672
      5 C4          0.8605   -0.7133    1.0203 C.3       1 <0>        -0.0910
      6 H2          0.4168   -1.6524    1.3509 H         1 <0>         0.1351
      7 C5          1.4294    0.1567    2.1114 C.2       1 <0>         0.0399
      8 C6          1.0449    0.1541    3.4004 C.2       1 <0>        -0.2085
      9 C7          1.8364    1.1184    4.0658 C.2       1 <0>        -0.1615
     10 C8          2.6571    1.6525    3.1436 C.2       1 <0>        -0.0579
     11 O1          2.4101    1.0622    1.9628 O.3       1 <0>        -0.1730
     12 C9          3.6835    2.7271    3.3941 C.3       1 <0>         0.1957
     13 N1          4.9611    2.1076    3.7549 N.am      1 <0>        -0.5937
     14 C10         5.9308    1.7670    2.7110 C.3       1 <0>         0.1281
     15 H3          6.8578    1.4213    3.1684 H         1 <0>         0.1158
     16 C11         6.2110    3.0025    1.8394 C.3       1 <0>        -0.1414
     17 C12         6.9718    2.5832    0.5585 C.3       1 <0>        -0.5767
     18 S1          6.4101    0.8505    0.3041 S.o2      1 <0>         2.3685
     19 O2          5.5914    0.7955   -0.8561 O.2       1 <0>        -0.9241
     20 O3          7.5290   -0.0188    0.4121 O.2       1 <0>        -0.9278
     21 C13         5.3483    0.6517    1.7965 C.3       1 <0>        -0.6099
     22 C14         5.2443    1.8509    5.0474 C.2       1 <0>         0.5270
     23 O4          4.4072    2.0485    5.9024 O.2       1 <0>        -0.4874
     24 C15         6.6011    1.3182    5.4301 C.3       1 <0>         0.0319
     25 O5          6.6196    1.0222    6.8279 O.3       1 <0>        -0.2755
     26 C16         7.7797    0.5286    7.3394 C.ar      1 <0>         0.0706
     27 C17         8.0007   -0.8415    7.3633 C.ar      1 <0>         0.1086
     28 C18         9.1825   -1.3430    7.8839 C.ar      1 <0>         0.0718
     29 C19        10.1439   -0.4772    8.3806 C.ar      1 <0>         0.0981
     30 C20         9.9241    0.8909    8.3577 C.ar      1 <0>         0.0713
     31 C21         8.7455    1.3949    7.8323 C.ar      1 <0>         0.1090
     32 F1          8.5339    2.7290    7.8049 F         1 <0>        -0.0912
     33 F2         10.8619    1.7337    8.8431 F         1 <0>        -0.0929
     34 F3         11.2961   -0.9674    8.8881 F         1 <0>        -0.0901
     35 F4          9.3976   -2.6765    7.9077 F         1 <0>        -0.0925
     36 F5          7.0634   -1.6857    6.8795 F         1 <0>        -0.0910
     37 H4          1.2292    1.8896   -0.1404 H         1 <0>         0.0600
     38 H5         -0.2764    1.8754   -1.0897 H         1 <0>         0.0641
     39 H6         -0.3456    1.8754    0.6890 H         1 <0>         0.0594
     40 H7          1.6005   -1.6422   -0.8932 H         1 <0>         0.1044
     41 H8          2.4559   -0.0738   -0.4352 H         1 <0>         0.1048
     42 H9          0.2783   -0.4652    3.8421 H         1 <0>         0.1487
     43 H10         1.7905    1.3767    5.1135 H         1 <0>         0.1521
     44 H11         3.8116    3.3247    2.4915 H         1 <0>         0.1034
     45 H12         3.3473    3.3678    4.2093 H         1 <0>         0.1245
     46 H13         5.2668    3.4715    1.5623 H         1 <0>         0.0983
     47 H14         6.8153    3.7134    2.4029 H         1 <0>         0.1086
     48 H15         6.6839    3.2106   -0.2850 H         1 <0>         0.1493
     49 H16         8.0493    2.6205    0.7193 H         1 <0>         0.1454
     50 H17         5.4788   -0.3334    2.2444 H         1 <0>         0.1475
     51 H18         4.3006    0.8407    1.5630 H         1 <0>         0.1589
     52 H19         6.8079    0.4103    4.8636 H         1 <0>         0.0973
     53 H20         7.3614    2.0668    5.2071 H         1 <0>         0.1018
@<TRIPOS>BOND
     1    1    2 1
     2    1   37 1
     3    1   38 1
     4    1   39 1
     5    2    3 1
     6    2    5 1
     7    2    4 1
     8    4    5 1
     9    4   40 1
    10    4   41 1
    11    5    6 1
    12    5    7 1
    13    7   11 1
    14    7    8 2
    15    8    9 1
    16    8   42 1
    17    9   10 2
    18    9   43 1
    19   10   11 1
    20   10   12 1
    21   12   13 1
    22   12   44 1
    23   12   45 1
    24   13   14 1
    25   13   22 am
    26   14   15 1
    27   14   21 1
    28   14   16 1
    29   16   17 1
    30   16   46 1
    31   16   47 1
    32   17   18 1
    33   17   48 1
    34   17   49 1
    35   18   19 2
    36   18   20 2
    37   18   21 1
    38   21   50 1
    39   21   51 1
    40   22   23 2
    41   22   24 1
    42   24   25 1
    43   24   52 1
    44   24   53 1
    45   25   26 1
    46   26   31 ar
    47   26   27 ar
    48   27   28 ar
    49   27   36 1
    50   28   29 ar
    51   28   35 1
    52   29   30 ar
    53   29   34 1
    54   30   31 ar
    55   30   33 1
    56   31   32 1
@<TRIPOS>MOLECULE
ZINC11951807
   50    52     0     0     0
SMALL
USER_CHARGES
(1R)-N-[[2-(4-fluorophenyl)-5-methyl-oxazol-4-yl]methyl]-1-(3-methoxyphenyl)-N-methyl-ethanamine
@<TRIPOS>ATOM
      1 C1         -4.2708    7.6703    0.7571 C.3       1 <0>        -0.0948
      2 C2         -3.4519    7.8197    2.0133 C.2       1 <0>         0.0131
      3 C3         -2.1286    7.6090    2.1324 C.2       1 <0>        -0.0807
      4 N1         -1.7863    7.8548    3.4064 N.2       1 <0>        -0.4612
      5 C4         -2.8631    8.2041    4.0703 C.2       1 <0>         0.2747
      6 O1         -3.9099    8.1860    3.2270 O.3       1 <0>        -0.1789
      7 C5         -2.9161    8.5580    5.5043 C.ar      1 <0>        -0.0562
      8 C6         -1.7528    8.5323    6.2755 C.ar      1 <0>        -0.0338
      9 C7         -1.8069    8.8690    7.6117 C.ar      1 <0>        -0.1557
     10 C8         -3.0154    9.2209    8.1919 C.ar      1 <0>         0.1378
     11 C9         -4.1742    9.2430    7.4319 C.ar      1 <0>        -0.1535
     12 C10        -4.1305    8.9136    6.0936 C.ar      1 <0>        -0.0503
     13 F1         -3.0638    9.5440    9.5028 F         1 <0>        -0.1246
     14 C11        -1.1955    7.1796    1.0297 C.3       1 <0>         0.0919
     15 C12        -2.4196    5.1355    0.5984 C.3       1 <0>        -0.0574
     16 C13        -0.0549    5.2601    0.0933 C.3       1 <0>         0.0841
     17 H1         -0.2400    5.6359   -0.9130 H         1 <0>         0.1484
     18 C14        -0.0225    3.7306    0.0685 C.3       1 <0>        -0.1788
     19 C15         1.2689    5.7826    0.5889 C.ar      1 <0>        -0.1054
     20 C16         1.5969    5.6739    1.9279 C.ar      1 <0>        -0.1546
     21 C17         2.8129    6.1471    2.3848 C.ar      1 <0>        -0.0593
     22 C18         3.6992    6.7395    1.5059 C.ar      1 <0>        -0.1853
     23 C19         3.3725    6.8498    0.1623 C.ar      1 <0>         0.1445
     24 C20         2.1537    6.3693   -0.2946 C.ar      1 <0>        -0.1270
     25 O2          4.2450    7.4271   -0.7051 O.3       1 <0>        -0.3106
     26 C21         5.4809    7.8987   -0.1646 C.3       1 <0>         0.0221
     27 H2         -4.6461    6.6494    0.6872 H         1 <0>         0.0982
     28 H3         -5.1104    8.3649    0.7859 H         1 <0>         0.1003
     29 H4         -3.6482    7.8887   -0.1106 H         1 <0>         0.1004
     30 H5         -0.8115    8.2532    5.8256 H         1 <0>         0.1483
     31 H6         -0.9067    8.8537    8.2083 H         1 <0>         0.1510
     32 H7         -5.1133    9.5183    7.8889 H         1 <0>         0.1509
     33 H8         -5.0342    8.9305    5.5025 H         1 <0>         0.1436
     34 H9         -0.2012    7.5850    1.2167 H         1 <0>         0.1471
     35 H10        -1.5660    7.5520    0.0747 H         1 <0>         0.1458
     36 H11        -2.3626    4.0482    0.6499 H         1 <0>         0.1295
     37 H12        -3.1963    5.4911    1.2755 H         1 <0>         0.1181
     38 H13        -2.6592    5.4389   -0.4207 H         1 <0>         0.1299
     39 H14         0.1627    3.3548    1.0748 H         1 <0>         0.0822
     40 H15        -0.9799    3.3527   -0.2900 H         1 <0>         0.0875
     41 H16         0.7729    3.3948   -0.5968 H         1 <0>         0.1091
     42 H17         0.9037    5.2148    2.6172 H         1 <0>         0.1209
     43 H18         3.0685    6.0573    3.4302 H         1 <0>         0.1379
     44 H19         4.6475    7.1124    1.8639 H         1 <0>         0.1401
     45 H20         1.8969    6.4543   -1.3402 H         1 <0>         0.1416
     46 H21         6.0827    8.3357   -0.9614 H         1 <0>         0.1104
     47 H22         5.2805    8.6540    0.5953 H         1 <0>         0.0617
     48 H23         6.0223    7.0660    0.2846 H         1 <0>         0.0622
     49 N2         -1.1206    5.7035    1.0165 N.4       1 <0>        -0.3936
     50 H24        -0.9010    5.3721    1.9631 H         1 <0>         0.4285
@<TRIPOS>BOND
     1    1    2 1
     2    1   27 1
     3    1   28 1
     4    1   29 1
     5    2    6 1
     6    2    3 2
     7    3    4 1
     8    3   14 1
     9    4    5 2
    10    5    6 1
    11    5    7 1
    12    7   12 ar
    13    7    8 ar
    14    8    9 ar
    15    8   30 1
    16    9   10 ar
    17    9   31 1
    18   10   11 ar
    19   10   13 1
    20   11   12 ar
    21   11   32 1
    22   12   33 1
    23   14   34 1
    24   14   35 1
    25   14   49 1
    26   15   36 1
    27   15   37 1
    28   15   38 1
    29   15   49 1
    30   16   17 1
    31   16   18 1
    32   16   19 1
    33   16   49 1
    34   18   39 1
    35   18   40 1
    36   18   41 1
    37   19   24 ar
    38   19   20 ar
    39   20   21 ar
    40   20   42 1
    41   21   22 ar
    42   21   43 1
    43   22   23 ar
    44   22   44 1
    45   23   24 ar
    46   23   25 1
    47   24   45 1
    48   25   26 1
    49   26   46 1
    50   26   47 1
    51   26   48 1
    52   49   50 1
@<TRIPOS>MOLECULE
ZINC35790531
   54    57     0     0     0
SMALL
USER_CHARGES

@<TRIPOS>ATOM
      1 C1          0.5127    1.4032   -0.2061 C.3       1 <0>         0.0177
      2 O1          0.3598   -0.0163   -0.1459 O.3       1 <0>        -0.3242
      3 C2         -0.9101   -0.4992   -0.1132 C.ar      1 <0>         0.1434
      4 C3         -1.9871    0.3751   -0.1442 C.ar      1 <0>        -0.2005
      5 C4         -3.2768   -0.1182   -0.1114 C.ar      1 <0>        -0.0467
      6 C5         -3.4951   -1.4823   -0.0476 C.ar      1 <0>        -0.1466
      7 C6         -2.4238   -2.3554   -0.0161 C.ar      1 <0>        -0.0552
      8 C7         -1.1319   -1.8672   -0.0545 C.ar      1 <0>        -0.1878
      9 C8          0.0355   -2.8199   -0.0265 C.3       1 <0>         0.0450
     10 N1          0.5801   -2.8871    1.3362 N.4       1 <0>        -0.3823
     11 C9          1.0780   -1.5659    1.7262 C.3       1 <0>        -0.0125
     12 C10         1.5909   -1.5751    3.1608 C.3       1 <0>        -0.1604
     13 C11         0.7537   -2.5415    4.0037 C.3       1 <0>         0.0842
     14 N2          1.3405   -3.8835    3.9134 N.pl3     1 <0>        -0.4561
     15 C12         1.5748   -4.7349    4.9500 C.2       1 <0>         0.0276
     16 C13         2.1041   -5.8710    4.4510 C.2       1 <0>        -0.1952
     17 C14         2.2050   -5.7120    3.0544 C.2       1 <0>        -0.1188
     18 C15         1.7377   -4.4849    2.7532 C.2       1 <0>        -0.0558
     19 C16         1.6723   -3.8690    1.3767 C.3       1 <0>         0.1788
     20 H1          2.6168   -3.3721    1.1552 H         1 <0>         0.1509
     21 C17         1.4180   -4.9470    0.3548 C.ar      1 <0>        -0.1707
     22 C18         0.2326   -5.6563    0.3783 C.ar      1 <0>        -0.0700
     23 C19        -0.0011   -6.6456   -0.5586 C.ar      1 <0>        -0.1453
     24 C20         0.9503   -6.9276   -1.5218 C.ar      1 <0>        -0.0461
     25 C21         2.1368   -6.2210   -1.5499 C.ar      1 <0>        -0.1990
     26 C22         2.3715   -5.2240   -0.6138 C.ar      1 <0>         0.1645
     27 O2          3.5358   -4.5236   -0.6428 O.3       1 <0>        -0.3183
     28 C23         4.4716   -4.8628   -1.6682 C.3       1 <0>         0.0229
     29 H2          1.5733    1.6538   -0.2271 H         1 <0>         0.1110
     30 H3          0.0318    1.7826   -1.1077 H         1 <0>         0.0670
     31 H4          0.0497    1.8560    0.6707 H         1 <0>         0.0646
     32 H5         -1.8170    1.4405   -0.1937 H         1 <0>         0.1412
     33 H6         -4.1154    0.5619   -0.1351 H         1 <0>         0.1390
     34 H7         -4.5043   -1.8660   -0.0219 H         1 <0>         0.1388
     35 H8         -2.5970   -3.4203    0.0341 H         1 <0>         0.1386
     36 H9         -0.2972   -3.8113   -0.3341 H         1 <0>         0.1447
     37 H10         0.8083   -2.4678   -0.7097 H         1 <0>         0.1366
     38 H11         1.8896   -1.2779    1.0580 H         1 <0>         0.1387
     39 H12         0.2700   -0.8394    1.6398 H         1 <0>         0.1384
     40 H13         2.6330   -1.8945    3.1711 H         1 <0>         0.1030
     41 H14         1.5161   -0.5713    3.5790 H         1 <0>         0.1253
     42 H15         0.7530   -2.2127    5.0429 H         1 <0>         0.1230
     43 H16        -0.2684   -2.5640    3.6257 H         1 <0>         0.0805
     44 H17         1.3716   -4.5352    5.9917 H         1 <0>         0.1747
     45 H18         2.3964   -6.7426    5.0178 H         1 <0>         0.1488
     46 H19         2.5870   -6.4401    2.3542 H         1 <0>         0.1425
     47 H20        -0.5120   -5.4379    1.1295 H         1 <0>         0.1288
     48 H21        -0.9280   -7.1994   -0.5381 H         1 <0>         0.1382
     49 H22         0.7656   -7.7011   -2.2524 H         1 <0>         0.1392
     50 H23         2.8795   -6.4416   -2.3023 H         1 <0>         0.1422
     51 H24         4.7613   -5.9084   -1.5642 H         1 <0>         0.0654
     52 H25         4.0125   -4.7083   -2.6446 H         1 <0>         0.0637
     53 H26         5.3547   -4.2303   -1.5777 H         1 <0>         0.1098
     54 H27        -0.1485   -3.1702    1.9743 H         1 <0>         0.4127
@<TRIPOS>BOND
     1    1    2 1
     2    1   29 1
     3    1   30 1
     4    1   31 1
     5    2    3 1
     6    3    8 ar
     7    3    4 ar
     8    4    5 ar
     9    4   32 1
    10    5    6 ar
    11    5   33 1
    12    6    7 ar
    13    6   34 1
    14    7    8 ar
    15    7   35 1
    16    8    9 1
    17    9   10 1
    18    9   36 1
    19    9   37 1
    20   10   19 1
    21   10   11 1
    22   10   54 1
    23   11   12 1
    24   11   38 1
    25   11   39 1
    26   12   13 1
    27   12   40 1
    28   12   41 1
    29   13   14 1
    30   13   42 1
    31   13   43 1
    32   14   18 1
    33   14   15 1
    34   15   16 2
    35   15   44 1
    36   16   17 1
    37   16   45 1
    38   17   18 2
    39   17   46 1
    40   18   19 1
    41   19   20 1
    42   19   21 1
    43   21   26 ar
    44   21   22 ar
    45   22   23 ar
    46   22   47 1
    47   23   24 ar
    48   23   48 1
    49   24   25 ar
    50   24   49 1
    51   25   26 ar
    52   25   50 1
    53   26   27 1
    54   27   28 1
    55   28   51 1
    56   28   52 1
    57   28   53 1
@<TRIPOS>MOLECULE
ZINC39502932
   55    58     0     0     0
SMALL
USER_CHARGES

@<TRIPOS>ATOM
      1 C1         -0.1370    1.5577   -0.1146 C.3       1 <0>         0.0202
      2 O1         -0.0499    0.1314   -0.1169 O.3       1 <0>        -0.3562
      3 C2         -1.3159   -0.5283   -0.0535 C.3       1 <0>         0.0735
      4 H1         -2.0449    0.0810    0.4808 H         1 <0>         0.1017
      5 C3         -1.1798   -1.9311    0.5982 C.3       1 <0>        -0.1292
      6 C4         -2.3550   -2.7095   -0.0165 C.3       1 <0>         0.0585
      7 C5         -3.5360   -2.7496    0.9606 C.3       1 <0>        -0.1248
      8 C6         -3.8033   -4.2407    1.2600 C.3       1 <0>        -0.1053
      9 C7         -3.2156   -4.9857    0.0352 C.3       1 <0>        -0.6050
     10 H2         -3.9127   -4.9615   -0.8024 H         1 <0>         0.1496
     11 C8         -1.9408   -4.1649   -0.2875 C.3       1 <0>        -0.1332
     12 S1         -2.7921   -6.6961    0.4662 S.o2      1 <0>         2.5047
     13 O2         -2.3915   -7.4089   -0.6961 O.2       1 <0>        -0.9222
     14 O3         -1.9949   -6.7215    1.6422 O.2       1 <0>        -0.9176
     15 C9         -4.3194   -7.4346    0.9422 C.ar      1 <0>        -0.6637
     16 C10        -4.7289   -7.3861    2.2617 C.ar      1 <0>        -0.0242
     17 C11        -5.9272   -7.9654    2.6352 C.ar      1 <0>        -0.1357
     18 C12        -6.7161   -8.5928    1.6892 C.ar      1 <0>        -0.0562
     19 C13        -6.3070   -8.6406    0.3696 C.ar      1 <0>        -0.1357
     20 C14        -5.1108   -8.0575   -0.0046 C.ar      1 <0>        -0.0260
     21 N1         -2.7343   -2.0386   -1.2667 N.4       1 <0>        -0.3751
     22 C15        -1.8261   -0.8875   -1.4719 C.3       1 <0>        -0.0366
     23 C16        -2.6077   -2.9764   -2.3903 C.3       1 <0>         0.0337
     24 C17        -3.1464   -2.3350   -3.6430 C.ar      1 <0>        -0.1609
     25 C18        -4.4820   -2.4743   -3.9715 C.ar      1 <0>        -0.0954
     26 C19        -4.9761   -1.8859   -5.1206 C.ar      1 <0>        -0.1123
     27 C20        -4.1348   -1.1580   -5.9411 C.ar      1 <0>        -0.0835
     28 C21        -2.7995   -1.0180   -5.6122 C.ar      1 <0>        -0.1121
     29 C22        -2.3063   -1.6028   -4.4608 C.ar      1 <0>        -0.0938
     30 H3          0.8653    1.9830   -0.1647 H         1 <0>         0.1038
     31 H4         -0.7154    1.8878   -0.9775 H         1 <0>         0.0497
     32 H5         -0.6275    1.8903    0.8003 H         1 <0>         0.0557
     33 H6         -0.2291   -2.3911    0.3287 H         1 <0>         0.1163
     34 H7         -1.2848   -1.8653    1.6811 H         1 <0>         0.1249
     35 H8         -3.2789   -2.2237    1.8801 H         1 <0>         0.1155
     36 H9         -4.4155   -2.2964    0.5033 H         1 <0>         0.0914
     37 H10        -3.2911   -4.5442    2.1730 H         1 <0>         0.1052
     38 H11        -4.8741   -4.4272    1.3422 H         1 <0>         0.1049
     39 H12        -1.6582   -4.2934   -1.3323 H         1 <0>         0.1210
     40 H13        -1.1217   -4.4575    0.3695 H         1 <0>         0.1265
     41 H14        -4.1126   -6.8959    3.0007 H         1 <0>         0.1423
     42 H15        -6.2468   -7.9282    3.6661 H         1 <0>         0.1379
     43 H16        -7.6519   -9.0461    1.9812 H         1 <0>         0.1364
     44 H17        -6.9232   -9.1310   -0.3694 H         1 <0>         0.1374
     45 H18        -4.7929   -8.0915   -1.0363 H         1 <0>         0.1412
     46 H19        -2.3693   -0.0470   -1.9038 H         1 <0>         0.1361
     47 H20        -0.9926   -1.1720   -2.1141 H         1 <0>         0.1416
     48 H21        -1.5577   -3.2306   -2.5348 H         1 <0>         0.1426
     49 H22        -3.1742   -3.8820   -2.1732 H         1 <0>         0.1396
     50 H23        -5.1392   -3.0430   -3.3304 H         1 <0>         0.1297
     51 H24        -6.0194   -1.9953   -5.3776 H         1 <0>         0.1363
     52 H25        -4.5207   -0.6989   -6.8393 H         1 <0>         0.1362
     53 H26        -2.1421   -0.4496   -6.2534 H         1 <0>         0.1366
     54 H27        -1.2638   -1.4903   -4.2019 H         1 <0>         0.1301
     55 H28        -3.6869   -1.7123   -1.2022 H         1 <0>         0.4242
@<TRIPOS>BOND
     1    1    2 1
     2    1   30 1
     3    1   31 1
     4    1   32 1
     5    2    3 1
     6    3    4 1
     7    3   22 1
     8    3    5 1
     9    5    6 1
    10    5   33 1
    11    5   34 1
    12    6   11 1
    13    6    7 1
    14    6   21 1
    15    7    8 1
    16    7   35 1
    17    7   36 1
    18    8    9 1
    19    8   37 1
    20    8   38 1
    21    9   10 1
    22    9   11 1
    23    9   12 1
    24   11   39 1
    25   11   40 1
    26   12   13 2
    27   12   14 2
    28   12   15 1
    29   15   20 ar
    30   15   16 ar
    31   16   17 ar
    32   16   41 1
    33   17   18 ar
    34   17   42 1
    35   18   19 ar
    36   18   43 1
    37   19   20 ar
    38   19   44 1
    39   20   45 1
    40   21   22 1
    41   21   23 1
    42   21   55 1
    43   22   46 1
    44   22   47 1
    45   23   24 1
    46   23   48 1
    47   23   49 1
    48   24   29 ar
    49   24   25 ar
    50   25   26 ar
    51   25   50 1
    52   26   27 ar
    53   26   51 1
    54   27   28 ar
    55   27   52 1
    56   28   29 ar
    57   28   53 1
    58   29   54 1
@<TRIPOS>MOLECULE
ZINC54473417
   49    52     0     0     0
SMALL
USER_CHARGES

@<TRIPOS>ATOM
      1 C1         -0.0178    1.4648    0.0101 C.3       1 <0>        -0.0503
      2 N1          0.0021   -0.0041    0.0020 N.4       1 <0>        -0.4010
      3 C2          0.6897   -0.4778   -1.2066 C.3       1 <0>         0.0484
      4 C3         -0.1057   -0.0832   -2.4243 C.ar      1 <0>        -0.1683
      5 C4         -1.0788   -0.9338   -2.9171 C.ar      1 <0>        -0.0834
      6 C5         -1.8101   -0.5774   -4.0320 C.ar      1 <0>        -0.1132
      7 C6         -1.5667    0.6418   -4.6613 C.ar      1 <0>         0.0065
      8 C7         -0.5853    1.4947   -4.1605 C.ar      1 <0>        -0.1139
      9 C8          0.1363    1.1307   -3.0417 C.ar      1 <0>        -0.0872
     10 C9         -2.3495    1.0301   -5.8606 C.ar      1 <0>        -0.0766
     11 C10        -3.3346    0.1795   -6.3582 C.ar      1 <0>        -0.1005
     12 C11        -4.0600    0.5460   -7.4737 C.ar      1 <0>        -0.1175
     13 C12        -3.8103    1.7549   -8.0978 C.ar      1 <0>        -0.1013
     14 C13        -2.8333    2.6029   -7.6084 C.ar      1 <0>        -0.1175
     15 C14        -2.1061    2.2492   -6.4899 C.ar      1 <0>        -0.1008
     16 C15         0.7126   -0.4907    1.1921 C.3       1 <0>         0.2460
     17 N2         -0.0378   -0.1199    2.3945 N.am      1 <0>        -0.4651
     18 C16         0.4105    0.8960    3.1612 C.2       1 <0>         0.5394
     19 O1          1.4253    1.4991    2.8609 O.2       1 <0>        -0.5000
     20 C17        -0.3482    1.2608    4.3639 C.ar      1 <0>        -0.1295
     21 C18         0.0525    2.2987    5.2042 C.ar      1 <0>        -0.0528
     22 C19        -0.7007    2.5954    6.3188 C.ar      1 <0>        -0.0950
     23 C20        -1.8501    1.8722    6.6110 C.ar      1 <0>        -0.0795
     24 C21        -2.2618    0.8507    5.8015 C.ar      1 <0>        -0.0806
     25 C22        -1.5188    0.5275    4.6645 C.ar      1 <0>        -0.0872
     26 C23        -1.9157   -0.5558    3.7649 C.2       1 <0>         0.1743
     27 N3         -1.2000   -0.8227    2.7133 N.2       1 <0>        -0.2732
     28 H1          1.0047    1.8421    0.0024 H         1 <0>         0.1282
     29 H2         -0.5450    1.8259   -0.8730 H         1 <0>         0.1283
     30 H3         -0.5280    1.8163    0.9069 H         1 <0>         0.1080
     31 H4          1.6817   -0.0294   -1.2596 H         1 <0>         0.1396
     32 H5          0.7830   -1.5632   -1.1697 H         1 <0>         0.1412
     33 H6         -1.2664   -1.8786   -2.4288 H         1 <0>         0.1344
     34 H7         -2.5695   -1.2424   -4.4162 H         1 <0>         0.1383
     35 H8         -0.3923    2.4406   -4.6446 H         1 <0>         0.1380
     36 H9          0.8939    1.7932   -2.6499 H         1 <0>         0.1336
     37 H10        -3.5299   -0.7649   -5.8721 H         1 <0>         0.1266
     38 H11        -4.8238   -0.1125   -7.8602 H         1 <0>         0.1304
     39 H12        -4.3800    2.0375   -8.9707 H         1 <0>         0.1298
     40 H13        -2.6421    3.5454   -8.0998 H         1 <0>         0.1303
     41 H14        -1.3465    2.9141   -6.1059 H         1 <0>         0.1263
     42 H15         0.8051   -1.5756    1.1418 H         1 <0>         0.1571
     43 H16         1.7055   -0.0428    1.2310 H         1 <0>         0.1647
     44 H17         0.9455    2.8647    4.9834 H         1 <0>         0.1475
     45 H18        -0.3942    3.3985    6.9726 H         1 <0>         0.1453
     46 H19        -2.4262    2.1202    7.4902 H         1 <0>         0.1447
     47 H20        -3.1574    0.2963    6.0402 H         1 <0>         0.1492
     48 H21        -2.8059   -1.1311    3.9724 H         1 <0>         0.2111
     49 H22        -0.9445   -0.3533    0.0092 H         1 <0>         0.4271
@<TRIPOS>BOND
     1    1    2 1
     2    1   28 1
     3    1   29 1
     4    1   30 1
     5    2    3 1
     6    2   16 1
     7    2   49 1
     8    3    4 1
     9    3   31 1
    10    3   32 1
    11    4    9 ar
    12    4    5 ar
    13    5    6 ar
    14    5   33 1
    15    6    7 ar
    16    6   34 1
    17    7    8 ar
    18    7   10 1
    19    8    9 ar
    20    8   35 1
    21    9   36 1
    22   10   15 ar
    23   10   11 ar
    24   11   12 ar
    25   11   37 1
    26   12   13 ar
    27   12   38 1
    28   13   14 ar
    29   13   39 1
    30   14   15 ar
    31   14   40 1
    32   15   41 1
    33   16   17 1
    34   16   42 1
    35   16   43 1
    36   17   27 1
    37   17   18 am
    38   18   19 2
    39   18   20 1
    40   20   25 ar
    41   20   21 ar
    42   21   22 ar
    43   21   44 1
    44   22   23 ar
    45   22   45 1
    46   23   24 ar
    47   23   46 1
    48   24   25 ar
    49   24   47 1
    50   25   26 1
    51   26   27 2
    52   26   48 1
@<TRIPOS>MOLECULE
ZINC38675781
   44    47     0     0     0
SMALL
USER_CHARGES

@<TRIPOS>ATOM
      1 C1          0.2857    1.7519    0.5962 C.ar      1 <0>        -0.0957
      2 C2          1.5264    2.3315    0.4082 C.ar      1 <0>        -0.1125
      3 C3          2.6374    1.5351    0.2026 C.ar      1 <0>        -0.1247
      4 C4          2.5077    0.1589    0.1854 C.ar      1 <0>        -0.1413
      5 C5          1.2671   -0.4208    0.3743 C.ar      1 <0>        -0.0791
      6 C6          0.1559    0.3757    0.5785 C.ar      1 <0>        -0.1071
      7 C7          3.7187   -0.7093   -0.0398 C.3       1 <0>         0.0946
      8 H1          4.6147   -0.1698    0.2672 H         1 <0>         0.1148
      9 C8          3.8201   -1.0606   -1.5018 C.2       1 <0>         0.3986
     10 O1          3.4366   -2.1440   -1.8939 O.2       1 <0>        -0.3512
     11 C9          4.3607   -0.1307   -2.4150 C.2       1 <0>        -0.0448
     12 C10         4.5180   -0.2929   -3.7797 C.ar      1 <0>        -0.0607
     13 C11         4.2188   -1.3568   -4.6631 C.ar      1 <0>        -0.0580
     14 C12         4.4854   -1.2415   -5.9833 C.ar      1 <0>        -0.1089
     15 C13         5.0604   -0.0870   -6.5382 C.ar      1 <0>         0.0330
     16 C14         5.3844    0.9842   -5.7823 C.ar      1 <0>        -0.1839
     17 C15         5.1264    0.9417   -4.3333 C.ar      1 <0>         0.3194
     18 N1          5.3347    1.8121   -3.3871 N.pl3     1 <0>        -0.5428
     19 C16         4.8837    1.2554   -2.1078 C.3       1 <0>         0.0567
     20 O2          3.5962   -1.9067    0.7305 O.3       1 <0>        -0.2771
     21 C17         3.9949   -1.8491    2.0269 C.ar      1 <0>         0.1464
     22 C18         4.0131   -3.0049    2.7982 C.ar      1 <0>        -0.1396
     23 C19         4.4174   -2.9510    4.1137 C.ar      1 <0>        -0.0270
     24 C20         4.8097   -1.7316    4.6727 C.ar      1 <0>        -0.0515
     25 C21         4.7899   -0.5717    3.8934 C.ar      1 <0>        -0.0283
     26 C22         4.3893   -0.6355    2.5772 C.ar      1 <0>        -0.2068
     27 C23         5.2303   -1.6709    6.0402 C.1       1 <0>         0.2441
     28 N2          5.5640   -1.6227    7.1250 N.1       1 <0>        -0.4014
     29 H2         -0.5816    2.3740    0.7614 H         1 <0>         0.1332
     30 H3          1.6278    3.4067    0.4217 H         1 <0>         0.1328
     31 H4          3.6067    1.9880    0.0550 H         1 <0>         0.1217
     32 H5          1.1657   -1.4959    0.3605 H         1 <0>         0.1356
     33 H6         -0.8135   -0.0772    0.7257 H         1 <0>         0.1346
     34 H7          3.7759   -2.2647   -4.2811 H         1 <0>         0.1692
     35 H8          4.2474   -2.0687   -6.6358 H         1 <0>         0.1626
     36 H9          5.2497   -0.0549   -7.6010 H         1 <0>         0.1701
     37 H10         5.8264    1.8598   -6.2344 H         1 <0>         0.1721
     38 H11         4.0890    1.8716   -1.6874 H         1 <0>         0.1855
     39 H12         5.7203    1.1949   -1.4116 H         1 <0>         0.1861
     40 H13         3.7094   -3.9467    2.3655 H         1 <0>         0.1474
     41 H14         4.4308   -3.8497    4.7126 H         1 <0>         0.1468
     42 H15         5.0919    0.3727    4.3216 H         1 <0>         0.1396
     43 H16         4.3779    0.2596    1.9730 H         1 <0>         0.1355
     44 H17         5.7236    2.6922   -3.5100 H         1 <0>         0.4618
@<TRIPOS>BOND
     1    1    6 ar
     2    1    2 ar
     3    1   29 1
     4    2    3 ar
     5    2   30 1
     6    3    4 ar
     7    3   31 1
     8    4    5 ar
     9    4    7 1
    10    5    6 ar
    11    5   32 1
    12    6   33 1
    13    7    8 1
    14    7    9 1
    15    7   20 1
    16    9   10 2
    17    9   11 1
    18   11   19 1
    19   11   12 2
    20   12   17 ar
    21   12   13 ar
    22   13   14 ar
    23   13   34 1
    24   14   15 ar
    25   14   35 1
    26   15   16 ar
    27   15   36 1
    28   16   17 ar
    29   16   37 1
    30   17   18 2
    31   18   19 1
    32   18   44 1
    33   19   38 1
    34   19   39 1
    35   20   21 1
    36   21   26 ar
    37   21   22 ar
    38   22   23 ar
    39   22   40 1
    40   23   24 ar
    41   23   41 1
    42   24   25 ar
    43   24   27 1
    44   25   26 ar
    45   25   42 1
    46   26   43 1
    47   27   28 3
@<TRIPOS>MOLECULE
ZINC00953249
   50    52     0     0     0
SMALL
USER_CHARGES
[1-(4-chlorophenyl)sulfonyl-4-piperidyl]-[3-(trifluoromethyl)-1-piperidyl]-methanone
@<TRIPOS>ATOM
      1 C1          1.4057   -2.8641   -6.4048 C.ar      1 <0>        -0.0058
      2 C2          1.8703   -2.0519   -7.4220 C.ar      1 <0>        -0.1299
      3 C3          3.0596   -1.3621   -7.2676 C.ar      1 <0>         0.0186
      4 C4          3.7804   -1.4815   -6.0927 C.ar      1 <0>        -0.1311
      5 C5          3.3120   -2.2896   -5.0740 C.ar      1 <0>        -0.0075
      6 C6          2.1235   -2.9786   -5.2289 C.ar      1 <0>        -0.6786
      7 S1          1.5270   -4.0087   -3.9297 S.o2      1 <0>         2.6918
      8 O1          2.6576   -4.3769   -3.1517 O.2       1 <0>        -0.9492
      9 O2          0.6721   -4.9698   -4.5335 O.2       1 <0>        -0.9483
     10 N1          0.5705   -3.0679   -2.9590 N.pl3     1 <0>        -0.9962
     11 C7         -0.8698   -2.9436   -3.2215 C.3       1 <0>         0.1197
     12 C8         -1.2261   -1.4571   -3.3221 C.3       1 <0>        -0.1192
     13 C9         -0.7533   -0.7366   -2.0575 C.3       1 <0>        -0.1041
     14 C10         0.7671   -0.8616   -1.9354 C.3       1 <0>        -0.1271
     15 C11         1.1461   -2.3413   -1.8190 C.3       1 <0>         0.1220
     16 C12        -1.1324    0.7197   -2.1380 C.2       1 <0>         0.5222
     17 O3         -1.3446    1.2324   -3.2164 O.2       1 <0>        -0.5288
     18 N2         -1.2357    1.4524   -1.0115 N.am      1 <0>        -0.6113
     19 C13        -1.0764    0.8244    0.3072 C.3       1 <0>         0.0983
     20 C14        -2.2998    1.1582    1.1667 C.3       1 <0>        -0.1316
     21 C15        -2.4892    2.6766    1.2090 C.3       1 <0>        -0.1213
     22 C16        -2.7309    3.2050   -0.2068 C.3       1 <0>        -0.1491
     23 H1         -3.6123    2.7227   -0.6296 H         1 <0>         0.1193
     24 C17        -1.5103    2.8942   -1.0788 C.3       1 <0>         0.1145
     25 C18        -2.9511    4.7182   -0.1572 C.3       1 <0>         0.4586
     26 F1         -3.1686    5.2005   -1.4523 F         1 <0>        -0.1797
     27 F2         -4.0659    5.0014    0.6392 F         1 <0>        -0.1797
     28 F3         -1.8202    5.3365    0.3868 F         1 <0>        -0.1803
     29 Cl1         3.6470   -0.3468   -8.5474 Cl        1 <0>        -0.0514
     30 H2          0.4796   -3.4061   -6.5269 H         1 <0>         0.1497
     31 H3          1.3072   -1.9591   -8.3389 H         1 <0>         0.1456
     32 H4          4.7087   -0.9430   -5.9715 H         1 <0>         0.1450
     33 H5          3.8743   -2.3826   -4.1567 H         1 <0>         0.1491
     34 H6         -1.4306   -3.3994   -2.4055 H         1 <0>         0.0813
     35 H7         -1.1170   -3.4429   -4.1584 H         1 <0>         0.0975
     36 H8         -2.3061   -1.3478   -3.4209 H         1 <0>         0.0829
     37 H9         -0.7354   -1.0231   -4.1932 H         1 <0>         0.0815
     38 H10        -1.2258   -1.1871   -1.1847 H         1 <0>         0.1005
     39 H11         1.2395   -0.4335   -2.8195 H         1 <0>         0.0777
     40 H12         1.1058   -0.3284   -1.0471 H         1 <0>         0.0837
     41 H13         0.7496   -2.7480   -0.8887 H         1 <0>         0.0830
     42 H14         2.2313   -2.4427   -1.8314 H         1 <0>         0.0977
     43 H15        -0.9961   -0.2563    0.1900 H         1 <0>         0.0953
     44 H16        -0.1765    1.2077    0.7881 H         1 <0>         0.0772
     45 H17        -3.1862    0.6949    0.7333 H         1 <0>         0.0734
     46 H18        -2.1484    0.7799    2.1776 H         1 <0>         0.0899
     47 H19        -1.5936    3.1408    1.6219 H         1 <0>         0.0813
     48 H20        -3.3462    2.9179    1.8379 H         1 <0>         0.0834
     49 H21        -0.6471    3.4482   -0.7098 H         1 <0>         0.0827
     50 H22        -1.7162    3.1792   -2.1105 H         1 <0>         0.1066
@<TRIPOS>BOND
     1    1    6 ar
     2    1    2 ar
     3    1   30 1
     4    2    3 ar
     5    2   31 1
     6    3    4 ar
     7    3   29 1
     8    4    5 ar
     9    4   32 1
    10    5    6 ar
    11    5   33 1
    12    6    7 1
    13    7    8 2
    14    7    9 2
    15    7   10 1
    16   10   15 1
    17   10   11 1
    18   11   12 1
    19   11   34 1
    20   11   35 1
    21   12   13 1
    22   12   36 1
    23   12   37 1
    24   13   14 1
    25   13   16 1
    26   13   38 1
    27   14   15 1
    28   14   39 1
    29   14   40 1
    30   15   41 1
    31   15   42 1
    32   16   17 2
    33   16   18 am
    34   18   24 1
    35   18   19 1
    36   19   20 1
    37   19   43 1
    38   19   44 1
    39   20   21 1
    40   20   45 1
    41   20   46 1
    42   21   22 1
    43   21   47 1
    44   21   48 1
    45   22   23 1
    46   22   24 1
    47   22   25 1
    48   24   49 1
    49   24   50 1
    50   25   26 1
    51   25   27 1
    52   25   28 1
@<TRIPOS>MOLECULE
ZINC12340655
   46    50     0     0     0
SMALL
USER_CHARGES
(5R)-7-(4-chlorophenyl)-5-(3-methyl-1-phenyl-pyrazol-4-yl)-5H-thiazolo[3,2-a]pyrimidin-3-one
@<TRIPOS>ATOM
      1 C1         -1.5971    4.4023    0.0387 C.3       1 <0>        -0.0789
      2 C2         -0.6968    3.1939    0.0245 C.2       1 <0>         0.1049
      3 C3         -1.1160    1.8590    0.0168 C.2       1 <0>        -0.2372
      4 C4         -0.0126    1.0758    0.0080 C.2       1 <0>         0.0786
      5 N1          1.0685    1.8882    0.0020 N.pl3     1 <0>        -0.3142
      6 N2          0.6118    3.2125    0.0126 N.2       1 <0>        -0.2789
      7 C5          2.4088    1.4778   -0.0127 C.ar      1 <0>         0.1578
      8 C6          2.7221    0.1252   -0.0168 C.ar      1 <0>        -0.1421
      9 C7          4.0436   -0.2760   -0.0357 C.ar      1 <0>        -0.0905
     10 C8          5.0542    0.6678   -0.0407 C.ar      1 <0>        -0.1269
     11 C9          4.7453    2.0156   -0.0314 C.ar      1 <0>        -0.0935
     12 C10         3.4257    2.4231   -0.0174 C.ar      1 <0>        -0.1176
     13 C11        -2.5443    1.3783    0.0208 C.3       1 <0>         0.2578
     14 H1         -3.1262    2.0767    0.6223 H         1 <0>         0.1014
     15 C12        -3.0597    1.4478   -1.3965 C.2       1 <0>        -0.1804
     16 C13        -3.5192    0.3211   -1.9656 C.2       1 <0>         0.1382
     17 N3         -3.5155   -0.8510   -1.2770 N.2       1 <0>        -0.4869
     18 C14        -3.0882   -0.9874   -0.0585 C.2       1 <0>         0.3880
     19 N4         -2.5779    0.0511    0.7013 N.am      1 <0>        -0.5905
     20 C15        -2.1590   -0.1801    1.9545 C.2       1 <0>         0.5169
     21 O1         -1.7076    0.7085    2.6451 O.2       1 <0>        -0.4620
     22 C16        -2.2753   -1.5990    2.4687 C.3       1 <0>        -0.1257
     23 S1         -3.0043   -2.4210    0.9991 S.3       1 <0>        -0.0066
     24 C17        -4.0339    0.3558   -3.3569 C.ar      1 <0>        -0.0360
     25 C18        -4.0465    1.5543   -4.0679 C.ar      1 <0>        -0.0924
     26 C19        -4.5204    1.5801   -5.3636 C.ar      1 <0>        -0.1103
     27 C20        -4.9938    0.4203   -5.9532 C.ar      1 <0>        -0.0273
     28 C21        -4.9890   -0.7716   -5.2488 C.ar      1 <0>        -0.1128
     29 C22        -4.5114   -0.8089   -3.9548 C.ar      1 <0>        -0.0704
     30 Cl1        -5.5948    0.4606   -7.5814 Cl        1 <0>        -0.0661
     31 H2         -1.8232    4.6990   -0.9855 H         1 <0>         0.0840
     32 H3         -2.5233    4.1593    0.5594 H         1 <0>         0.0800
     33 H4         -1.0960    5.2228    0.5523 H         1 <0>         0.0807
     34 H5          0.0021   -0.0041    0.0020 H         1 <0>         0.1644
     35 H6          1.9333   -0.6124   -0.0091 H         1 <0>         0.1252
     36 H7          4.2879   -1.3280   -0.0426 H         1 <0>         0.1346
     37 H8          6.0868    0.3516   -0.0517 H         1 <0>         0.1312
     38 H9          5.5368    2.7505   -0.0354 H         1 <0>         0.1343
     39 H10         3.1850    3.4759   -0.0097 H         1 <0>         0.1384
     40 H11        -3.0598    2.3811   -1.9399 H         1 <0>         0.1588
     41 H12        -1.2962   -2.0138    2.7084 H         1 <0>         0.1568
     42 H13        -2.9462   -1.6548    3.3260 H         1 <0>         0.1590
     43 H14        -3.6816    2.4604   -3.6073 H         1 <0>         0.1354
     44 H15        -4.5258    2.5073   -5.9173 H         1 <0>         0.1382
     45 H16        -5.3593   -1.6736   -5.7131 H         1 <0>         0.1377
     46 H17        -4.5075   -1.7393   -3.4064 H         1 <0>         0.1447
@<TRIPOS>BOND
     1    1    2 1
     2    1   31 1
     3    1   32 1
     4    1   33 1
     5    2    6 2
     6    2    3 1
     7    3    4 2
     8    3   13 1
     9    4    5 1
    10    4   34 1
    11    5    6 1
    12    5    7 1
    13    7   12 ar
    14    7    8 ar
    15    8    9 ar
    16    8   35 1
    17    9   10 ar
    18    9   36 1
    19   10   11 ar
    20   10   37 1
    21   11   12 ar
    22   11   38 1
    23   12   39 1
    24   13   14 1
    25   13   19 1
    26   13   15 1
    27   15   16 2
    28   15   40 1
    29   16   17 1
    30   16   24 1
    31   17   18 2
    32   18   23 1
    33   18   19 1
    34   19   20 am
    35   20   21 2
    36   20   22 1
    37   22   23 1
    38   22   41 1
    39   22   42 1
    40   24   29 ar
    41   24   25 ar
    42   25   26 ar
    43   25   43 1
    44   26   27 ar
    45   26   44 1
    46   27   28 ar
    47   27   30 1
    48   28   29 ar
    49   28   45 1
    50   29   46 1
@<TRIPOS>MOLECULE
ZINC23215517
   44    47     0     0     0
SMALL
USER_CHARGES
N-[4-[(Z)-[3-(4-fluorophenyl)-4-oxo-2-thioxo-thiazolidin-5-ylidene]methyl]thiazol-2-yl]-N-phenyl-acetamide
@<TRIPOS>ATOM
      1 C1          5.3411    3.6607    0.3755 C.3       1 <0>        -0.1709
      2 C2          3.9315    3.2163    0.0815 C.2       1 <0>         0.5137
      3 O1          3.0407    4.0358    0.0056 O.2       1 <0>        -0.4555
      4 N1          3.6608    1.9081   -0.0972 N.am      1 <0>        -0.4686
      5 C3          4.6667    0.9522    0.0941 C.ar      1 <0>         0.0945
      6 C4          4.8419    0.3666    1.3410 C.ar      1 <0>        -0.0981
      7 C5          5.8305   -0.5801    1.5249 C.ar      1 <0>        -0.1068
      8 C6          6.6535   -0.9359    0.4721 C.ar      1 <0>        -0.0959
      9 C7          6.4852   -0.3504   -0.7693 C.ar      1 <0>        -0.1072
     10 C8          5.4944    0.5924   -0.9612 C.ar      1 <0>        -0.0993
     11 C9          2.3835    1.5076   -0.4713 C.2       1 <0>         0.3507
     12 N2          1.2934    2.2336   -0.6075 N.2       1 <0>        -0.5039
     13 C10         0.1355    1.6850   -0.9789 C.2       1 <0>         0.0696
     14 C11         0.0954    0.3203   -1.2228 C.2       1 <0>        -0.1733
     15 S1          1.7949   -0.1259   -0.8927 S.3       1 <0>         0.0685
     16 C12        -1.0672    2.5079   -1.1317 C.2       1 <0>         0.0941
     17 C13        -1.0117    3.8450   -0.8887 C.2       1 <0>        -0.2391
     18 C14        -2.0757    4.8596   -0.9747 C.2       1 <0>         0.5418
     19 O2         -3.2118    4.5675   -1.3021 O.2       1 <0>        -0.4523
     20 N3         -1.7372    6.1031   -0.6786 N.am      1 <0>        -0.4815
     21 C15        -0.4781    6.4224   -0.3155 C.2       1 <0>         0.2259
     22 S2          0.1515    7.9584    0.1030 S.2       1 <0>        -0.3482
     23 S3          0.3708    4.8523   -0.3696 S.3       1 <0>         0.2322
     24 C16        -2.7089    7.1119   -0.7430 C.ar      1 <0>         0.0831
     25 C17        -3.1548    7.7227    0.4212 C.ar      1 <0>        -0.0516
     26 C18        -4.1078    8.7203    0.3552 C.ar      1 <0>        -0.1410
     27 C19        -4.6267    9.1033   -0.8702 C.ar      1 <0>         0.1214
     28 C20        -4.1873    8.4913   -2.0320 C.ar      1 <0>        -0.1432
     29 C21        -3.2303    7.4973   -1.9706 C.ar      1 <0>        -0.0575
     30 F1         -5.5625   10.0757   -0.9323 F         1 <0>        -0.1311
     31 H1          6.0036    2.7831    0.4052 H         1 <0>         0.0852
     32 H2          5.3684    4.1738    1.3481 H         1 <0>         0.1079
     33 H3          5.6802    4.3496   -0.4122 H         1 <0>         0.1082
     34 H4          4.2028    0.6480    2.1649 H         1 <0>         0.1315
     35 H5          5.9639   -1.0397    2.4930 H         1 <0>         0.1359
     36 H6          7.4290   -1.6730    0.6196 H         1 <0>         0.1337
     37 H7          7.1290   -0.6309   -1.5898 H         1 <0>         0.1360
     38 H8          5.3632    1.0491   -1.9310 H         1 <0>         0.1322
     39 H9         -0.7335   -0.3012   -1.5277 H         1 <0>         0.2134
     40 H10        -2.0150    2.0443   -1.4429 H         1 <0>         0.1765
     41 H11        -2.7536    7.4211    1.3775 H         1 <0>         0.1378
     42 H12        -4.4517    9.1988    1.2603 H         1 <0>         0.1484
     43 H13        -4.5934    8.7911   -2.9868 H         1 <0>         0.1474
     44 H14        -2.8876    7.0205   -2.8769 H         1 <0>         0.1354
@<TRIPOS>BOND
     1    1    2 1
     2    1   31 1
     3    1   32 1
     4    1   33 1
     5    2    3 2
     6    2    4 am
     7    4    5 1
     8    4   11 1
     9    5   10 ar
    10    5    6 ar
    11    6    7 ar
    12    6   34 1
    13    7    8 ar
    14    7   35 1
    15    8    9 ar
    16    8   36 1
    17    9   10 ar
    18    9   37 1
    19   10   38 1
    20   11   15 1
    21   11   12 2
    22   12   13 1
    23   13   14 2
    24   13   16 1
    25   14   15 1
    26   14   39 1
    27   16   17 2
    28   16   40 1
    29   17   23 1
    30   17   18 1
    31   18   19 2
    32   18   20 am
    33   20   21 1
    34   20   24 1
    35   21   22 2
    36   21   23 1
    37   24   29 ar
    38   24   25 ar
    39   25   26 ar
    40   25   41 1
    41   26   27 ar
    42   26   42 1
    43   27   28 ar
    44   27   30 1
    45   28   29 ar
    46   28   43 1
    47   29   44 1
@<TRIPOS>MOLECULE
ZINC39335610
   52    56     0     0     0
SMALL
USER_CHARGES

@<TRIPOS>ATOM
      1 C1         -0.0070    1.5221    0.0230 C.3       1 <0>        -0.1440
      2 C2          0.0012   -0.0078    0.0030 C.3       1 <0>        -0.1201
      3 H1         -1.0245   -0.3766    0.0038 H         1 <0>         0.1097
      4 C3          0.7074   -0.4901   -1.2379 C.2       1 <0>         0.5481
      5 O1          1.8892   -0.7598   -1.1969 O.2       1 <0>        -0.4894
      6 N1          0.0259   -0.6217   -2.3931 N.am      1 <0>        -0.5523
      7 C4         -1.3691   -0.2212   -2.5957 C.3       1 <0>         0.0974
      8 C5         -1.6806   -0.5715   -4.0599 C.3       1 <0>        -0.0855
      9 C6         -0.3947   -1.1634   -4.5917 C.ar      1 <0>        -0.1378
     10 C7          0.5480   -1.1549   -3.5756 C.ar      1 <0>         0.1440
     11 C8          1.8267   -1.6521   -3.8333 C.ar      1 <0>        -0.1294
     12 C9          2.1443   -2.1396   -5.0833 C.ar      1 <0>        -0.0930
     13 C10         1.1981   -2.1397   -6.0913 C.ar      1 <0>        -0.1388
     14 C11        -0.0733   -1.6569   -5.8413 C.ar      1 <0>        -0.0800
     15 S1          0.8677   -0.6271    1.4713 S.3       1 <0>        -0.0836
     16 C12        -0.1782   -0.0958    2.8549 C.3       1 <0>        -0.0681
     17 C13         0.4359   -0.5524    4.1531 C.2       1 <0>         0.4601
     18 N2          1.5645   -1.2185    4.1064 N.2       1 <0>        -0.5862
     19 C14         2.1890   -1.6625    5.2021 C.2       1 <0>         0.5537
     20 O2          3.2359   -2.2824    5.1220 O.2       1 <0>        -0.4430
     21 C15         1.5617   -1.3735    6.5311 C.2       1 <0>        -0.3177
     22 C16         2.0422   -1.6652    7.7536 C.2       1 <0>         0.0748
     23 C17         3.4419   -2.2182    8.0090 C.3       1 <0>        -0.0982
     24 C18         4.1171   -1.2685    9.0076 C.3       1 <0>        -0.1211
     25 C19         3.2335   -1.0809   10.2389 C.3       1 <0>        -0.1237
     26 C20         1.9093   -0.4101    9.8618 C.3       1 <0>        -0.1008
     27 C21         1.1322   -1.3497    8.9360 C.3       1 <0>        -0.0726
     28 H2          0.7966   -2.2491    9.4523 H         1 <0>         0.1654
     29 S2         -0.2400   -0.4417    8.1293 S.3       1 <0>         0.0191
     30 C22         0.2904   -0.6256    6.4453 C.2       1 <0>         0.2841
     31 N3         -0.1893   -0.2555    5.2815 N.2       1 <0>        -0.5339
     32 H3          1.0187    1.8910    0.0222 H         1 <0>         0.0794
     33 H4         -0.5277    1.8943   -0.8593 H         1 <0>         0.0685
     34 H5         -0.5178    1.8709    0.9205 H         1 <0>         0.0734
     35 H6         -2.0237   -0.7790   -1.9260 H         1 <0>         0.0854
     36 H7         -1.4826    0.8503   -2.4309 H         1 <0>         0.0861
     37 H8         -2.4864   -1.3036   -4.1125 H         1 <0>         0.0932
     38 H9         -1.9449    0.3268   -4.6178 H         1 <0>         0.0933
     39 H10         2.5705   -1.6545   -3.0503 H         1 <0>         0.1392
     40 H11         3.1356   -2.5224   -5.2757 H         1 <0>         0.1291
     41 H12         1.4493   -2.5218   -7.0697 H         1 <0>         0.1276
     42 H13        -0.8134   -1.6552   -6.6278 H         1 <0>         0.1261
     43 H14        -0.2583    0.9912    2.8533 H         1 <0>         0.1239
     44 H15        -1.1709   -0.5334    2.7488 H         1 <0>         0.1223
     45 H16         3.3753   -3.2198    8.4337 H         1 <0>         0.1054
     46 H17         4.0081   -2.2439    7.0779 H         1 <0>         0.1140
     47 H18         5.0763   -1.6873    9.3121 H         1 <0>         0.0870
     48 H19         4.2826   -0.3021    8.5315 H         1 <0>         0.0700
     49 H20         3.0283   -2.0542   10.6846 H         1 <0>         0.0751
     50 H21         3.7570   -0.4583   10.9644 H         1 <0>         0.0844
     51 H22         1.3261   -0.2194   10.7627 H         1 <0>         0.0947
     52 H23         2.1087    0.5292    9.3462 H         1 <0>         0.0846
@<TRIPOS>BOND
     1    1    2 1
     2    1   32 1
     3    1   33 1
     4    1   34 1
     5    2    3 1
     6    2    4 1
     7    2   15 1
     8    4    5 2
     9    4    6 am
    10    6   10 1
    11    6    7 1
    12    7    8 1
    13    7   35 1
    14    7   36 1
    15    8    9 1
    16    8   37 1
    17    8   38 1
    18    9   14 ar
    19    9   10 ar
    20   10   11 ar
    21   11   12 ar
    22   11   39 1
    23   12   13 ar
    24   12   40 1
    25   13   14 ar
    26   13   41 1
    27   14   42 1
    28   15   16 1
    29   16   17 1
    30   16   43 1
    31   16   44 1
    32   17   31 1
    33   17   18 2
    34   18   19 1
    35   19   20 2
    36   19   21 1
    37   21   30 1
    38   21   22 2
    39   22   27 1
    40   22   23 1
    41   23   24 1
    42   23   45 1
    43   23   46 1
    44   24   25 1
    45   24   47 1
    46   24   48 1
    47   25   26 1
    48   25   49 1
    49   25   50 1
    50   26   27 1
    51   26   51 1
    52   26   52 1
    53   27   28 1
    54   27   29 1
    55   29   30 1
    56   30   31 2
@<TRIPOS>MOLECULE
ZINC22629246
   41    43     0     0     0
SMALL
USER_CHARGES

@<TRIPOS>ATOM
      1 C1          1.0030   -0.3445   -0.9272 C.ar      1 <0>        -0.0732
      2 C2          2.1835    0.3677   -0.9502 C.ar      1 <0>        -0.1280
      3 C3          2.3776    1.4217   -0.0720 C.ar      1 <0>         0.0935
      4 C4          1.3850    1.7669    0.8360 C.ar      1 <0>         0.0679
      5 C5          0.1997    1.0605    0.8666 C.ar      1 <0>        -0.0729
      6 C6          0.0009   -0.0025   -0.0173 C.ar      1 <0>        -0.1143
      7 C7         -1.2657   -0.7625    0.0105 C.2       1 <0>         0.5667
      8 O1         -2.3237   -0.1762    0.1319 O.2       1 <0>        -0.5193
      9 N1         -1.2481   -2.1057   -0.0986 N.am      1 <0>        -0.6051
     10 C8          0.0257   -2.8386   -0.1105 C.3       1 <0>         0.0830
     11 C9         -0.0063   -3.8950    1.0008 C.3       1 <0>         0.1001
     12 N2         -1.2606   -4.6531    0.8922 N.pl3     1 <0>        -0.9963
     13 C10        -2.5344   -3.9202    0.9042 C.3       1 <0>         0.1010
     14 C11        -2.5027   -2.8642   -0.2016 C.3       1 <0>         0.1004
     15 S1         -1.2390   -6.3035    0.7581 S.o2      1 <0>         2.6920
     16 O2         -2.4577   -6.6759    0.1293 O.2       1 <0>        -0.9414
     17 O3          0.0310   -6.6510    0.2240 O.2       1 <0>        -0.9421
     18 C12        -1.2947   -6.9597    2.3925 C.ar      1 <0>        -0.6695
     19 C13        -0.1199   -7.1998    3.0810 C.ar      1 <0>        -0.0039
     20 C14        -0.1621   -7.7149    4.3627 C.ar      1 <0>        -0.1174
     21 C15        -1.3804   -7.9902    4.9578 C.ar      1 <0>         0.0202
     22 C16        -2.5566   -7.7494    4.2686 C.ar      1 <0>        -0.0544
     23 C17        -2.5127   -7.2288    2.9875 C.ar      1 <0>         0.0012
     24 Cl1        -4.0861   -8.0948    5.0137 Cl        1 <0>        -0.0308
     25 Cl2        -1.4340   -8.6377    6.5676 Cl        1 <0>        -0.0273
     26 F1          1.5801    2.7949    1.6905 F         1 <0>        -0.1206
     27 F2          3.5364    2.1157   -0.0987 F         1 <0>        -0.1200
     28 H1          0.8520   -1.1631   -1.6153 H         1 <0>         0.1507
     29 H2          2.9587    0.1031   -1.6541 H         1 <0>         0.1571
     30 H3         -0.5722    1.3288    1.5727 H         1 <0>         0.1562
     31 H4          0.1576   -3.3271   -1.0760 H         1 <0>         0.0866
     32 H5          0.8481   -2.1456    0.0670 H         1 <0>         0.1083
     33 H6          0.8409   -4.5714    0.8871 H         1 <0>         0.1109
     34 H7          0.0418   -3.4047    1.9731 H         1 <0>         0.0813
     35 H8         -3.3569   -4.6132    0.7266 H         1 <0>         0.1106
     36 H9         -2.6663   -3.4317    1.8696 H         1 <0>         0.0811
     37 H10        -3.3496   -2.1882   -0.0841 H         1 <0>         0.1120
     38 H11        -2.5549   -3.3546   -1.1736 H         1 <0>         0.0825
     39 H12         0.8313   -6.9850    2.6167 H         1 <0>         0.1573
     40 H13         0.7559   -7.9028    4.8997 H         1 <0>         0.1560
     41 H14        -3.4300   -7.0370    2.4508 H         1 <0>         0.1600
@<TRIPOS>BOND
     1    1    6 ar
     2    1    2 ar
     3    1   28 1
     4    2    3 ar
     5    2   29 1
     6    3    4 ar
     7    3   27 1
     8    4    5 ar
     9    4   26 1
    10    5    6 ar
    11    5   30 1
    12    6    7 1
    13    7    8 2
    14    7    9 am
    15    9   14 1
    16    9   10 1
    17   10   11 1
    18   10   31 1
    19   10   32 1
    20   11   12 1
    21   11   33 1
    22   11   34 1
    23   12   13 1
    24   12   15 1
    25   13   14 1
    26   13   35 1
    27   13   36 1
    28   14   37 1
    29   14   38 1
    30   15   16 2
    31   15   17 2
    32   15   18 1
    33   18   23 ar
    34   18   19 ar
    35   19   20 ar
    36   19   39 1
    37   20   21 ar
    38   20   40 1
    39   21   22 ar
    40   21   25 1
    41   22   23 ar
    42   22   24 1
    43   23   41 1
@<TRIPOS>MOLECULE
ZINC03551755
   53    55     0     0     0
SMALL
USER_CHARGES
1-[4-benzyl-5-[(2-chloro-6-fluoro-phenyl)methylsulfanyl]-1,2,4-triazol-3-yl]-N,N-dimethyl-propan-1-amine
@<TRIPOS>ATOM
      1 C1          0.8108   -0.5827    1.9169 C.3       1 <0>        -0.1531
      2 C2         -0.1375   -1.6926    2.3750 C.3       1 <0>        -0.1353
      3 C3         -1.4597   -1.5803    1.6133 C.3       1 <0>         0.1339
      4 H1         -1.2622   -1.5764    0.5413 H         1 <0>         0.1441
      5 C4         -2.1555   -0.3009    2.0006 C.2       1 <0>         0.1073
      6 N1         -2.4328    0.0911    3.2118 N.2       1 <0>        -0.2383
      7 N2         -3.0354    1.2259    3.1812 N.2       1 <0>        -0.2772
      8 C5         -3.1709    1.6255    1.9380 C.2       1 <0>         0.1939
      9 N3         -2.6100    0.6651    1.1459 N.pl3     1 <0>        -0.4413
     10 C6         -2.5197    0.6663   -0.3163 C.3       1 <0>         0.1408
     11 C7         -1.2795    1.4089   -0.7423 C.ar      1 <0>        -0.1372
     12 C8         -0.1193    0.7123   -1.0244 C.ar      1 <0>        -0.1007
     13 C9          1.0166    1.3930   -1.4207 C.ar      1 <0>        -0.1171
     14 C10         0.9939    2.7709   -1.5298 C.ar      1 <0>        -0.0945
     15 C11        -0.1647    3.4680   -1.2426 C.ar      1 <0>        -0.1110
     16 C12        -1.3007    2.7872   -0.8463 C.ar      1 <0>        -0.0891
     17 S1         -3.9328    3.1183    1.3944 S.3       1 <0>         0.0412
     18 C13        -4.4094    3.8271    2.9902 C.3       1 <0>        -0.0682
     19 C14        -5.0995    5.1481    2.7672 C.ar      1 <0>        -0.1247
     20 C15        -6.4732    5.1923    2.5993 C.ar      1 <0>         0.1344
     21 C16        -7.1060    6.4065    2.3944 C.ar      1 <0>        -0.1464
     22 C17        -6.3666    7.5737    2.3575 C.ar      1 <0>        -0.0596
     23 C18        -4.9955    7.5297    2.5256 C.ar      1 <0>        -0.1173
     24 C19        -4.3619    6.3175    2.7357 C.ar      1 <0>         0.0072
     25 Cl1        -2.6405    6.2640    2.9533 Cl        1 <0>        -0.0405
     26 F1         -7.1955    4.0511    2.6349 F         1 <0>        -0.1236
     27 C20        -1.7883   -3.9667    1.3689 C.3       1 <0>        -0.0451
     28 C21        -2.4805   -2.8514    3.4035 C.3       1 <0>        -0.0548
     29 H2          1.7464   -0.6522    2.4718 H         1 <0>         0.0820
     30 H3          1.0113   -0.6931    0.8512 H         1 <0>         0.0666
     31 H4          0.3502    0.3878    2.1013 H         1 <0>         0.0621
     32 H5         -0.3245   -1.5923    3.4442 H         1 <0>         0.1031
     33 H6          0.3158   -2.6634    2.1749 H         1 <0>         0.0979
     34 H7         -3.3986    1.1570   -0.7343 H         1 <0>         0.1190
     35 H8         -2.4704   -0.3608   -0.6781 H         1 <0>         0.1069
     36 H9         -0.1017   -0.3642   -0.9395 H         1 <0>         0.1163
     37 H10         1.9217    0.8484   -1.6454 H         1 <0>         0.1300
     38 H11         1.8813    3.3027   -1.8397 H         1 <0>         0.1315
     39 H12        -0.1826    4.5444   -1.3282 H         1 <0>         0.1325
     40 H13        -2.2060    3.3318   -0.6223 H         1 <0>         0.1293
     41 H14        -5.0875    3.1449    3.5029 H         1 <0>         0.1176
     42 H15        -3.5190    3.9808    3.6000 H         1 <0>         0.1217
     43 H16        -8.1774    6.4416    2.2630 H         1 <0>         0.1507
     44 H17        -6.8606    8.5207    2.1977 H         1 <0>         0.1518
     45 H18        -4.4187    8.4423    2.4970 H         1 <0>         0.1491
     46 H19        -0.8356   -4.2106    1.8389 H         1 <0>         0.1286
     47 H20        -2.4961   -4.7778    1.5401 H         1 <0>         0.1298
     48 H21        -1.6411   -3.8331    0.2972 H         1 <0>         0.1219
     49 H22        -2.9384   -1.9442    3.7978 H         1 <0>         0.1349
     50 H23        -3.1194   -3.7064    3.6243 H         1 <0>         0.1247
     51 H24        -1.5050   -2.9973    3.8675 H         1 <0>         0.1289
     52 N4         -2.3428   -2.7203    1.9377 N.4       1 <0>        -0.3943
     53 H25        -3.2696   -2.5508    1.5295 H         1 <0>         0.4296
@<TRIPOS>BOND
     1    1    2 1
     2    1   29 1
     3    1   30 1
     4    1   31 1
     5    2    3 1
     6    2   32 1
     7    2   33 1
     8    3    4 1
     9    3    5 1
    10    3   52 1
    11    5    9 1
    12    5    6 2
    13    6    7 1
    14    7    8 2
    15    8    9 1
    16    8   17 1
    17    9   10 1
    18   10   11 1
    19   10   34 1
    20   10   35 1
    21   11   16 ar
    22   11   12 ar
    23   12   13 ar
    24   12   36 1
    25   13   14 ar
    26   13   37 1
    27   14   15 ar
    28   14   38 1
    29   15   16 ar
    30   15   39 1
    31   16   40 1
    32   17   18 1
    33   18   19 1
    34   18   41 1
    35   18   42 1
    36   19   24 ar
    37   19   20 ar
    38   20   21 ar
    39   20   26 1
    40   21   22 ar
    41   21   43 1
    42   22   23 ar
    43   22   44 1
    44   23   24 ar
    45   23   45 1
    46   24   25 1
    47   27   46 1
    48   27   47 1
    49   27   48 1
    50   27   52 1
    51   28   49 1
    52   28   50 1
    53   28   51 1
    54   28   52 1
    55   52   53 1
@<TRIPOS>MOLECULE
ZINC08418604
   46    48     0     0     0
SMALL
USER_CHARGES
2-[(4-bromophenyl)-(4,5,6,7-tetrahydro-3H-azepin-2-yl)amino]-1-(4-fluorophenyl)ethanone
@<TRIPOS>ATOM
      1 C1         -2.4355    1.4234    0.9176 C.ar      1 <0>        -0.0453
      2 C2         -3.6104    2.0720    1.2281 C.ar      1 <0>        -0.1625
      3 C3         -3.5908    3.4074    1.6029 C.ar      1 <0>         0.1529
      4 C4         -2.3892    4.0969    1.6733 C.ar      1 <0>        -0.1630
      5 C5         -1.2066    3.4586    1.3710 C.ar      1 <0>        -0.0180
      6 C6         -1.2192    2.1115    0.9921 C.ar      1 <0>        -0.1979
      7 C7          0.0391    1.4238    0.6681 C.2       1 <0>         0.3824
      8 O1          1.0907    2.0254    0.7240 O.2       1 <0>        -0.4244
      9 C8          0.0217   -0.0269    0.2605 C.3       1 <0>         0.0516
     10 N1          1.3897   -0.4735   -0.0138 N.pl3     1 <0>        -0.4988
     11 C9          1.8770   -0.4700   -1.3251 C.ar      1 <0>         0.1484
     12 C10         3.2182   -0.7349   -1.5696 C.ar      1 <0>        -0.2297
     13 C11         3.6954   -0.7359   -2.8656 C.ar      1 <0>        -0.0332
     14 C12         2.8410   -0.4625   -3.9190 C.ar      1 <0>        -0.0997
     15 C13         1.5056   -0.1926   -3.6779 C.ar      1 <0>        -0.0304
     16 C14         1.0217   -0.1959   -2.3844 C.ar      1 <0>        -0.1298
     17 Br1         3.4996   -0.4583   -5.6916 Br        1 <0>        -0.0061
     18 C15         2.1927   -0.8951    1.0150 C.cat     1 <0>         0.5184
     19 C16         4.2209   -1.8432    1.8506 C.3       1 <0>         0.0666
     20 C17         4.7677   -0.6220    2.5921 C.3       1 <0>        -0.1456
     21 C18         3.8037   -0.1765    3.6791 C.3       1 <0>        -0.1346
     22 C19         2.4841    0.3441    3.1339 C.3       1 <0>        -0.1232
     23 C20         1.7069   -0.7792    2.4433 C.3       1 <0>        -0.1159
     24 F1         -4.7471    4.0392    1.9012 F         1 <0>        -0.1219
     25 H1         -2.4525    0.3849    0.6216 H         1 <0>         0.1414
     26 H2         -4.5493    1.5409    1.1753 H         1 <0>         0.1509
     27 H3         -2.3808    5.1364    1.9661 H         1 <0>         0.1507
     28 H4         -0.2717    3.9964    1.4265 H         1 <0>         0.1475
     29 H5         -0.3663   -0.5764    1.0005 H         1 <0>         0.1287
     30 H6         -0.5858   -0.1450   -0.6367 H         1 <0>         0.1516
     31 H7          3.8865   -0.9440   -0.7473 H         1 <0>         0.2011
     32 H8          4.7374   -0.9462   -3.0567 H         1 <0>         0.1580
     33 H9          0.8409    0.0204   -4.5020 H         1 <0>         0.1583
     34 H10        -0.0210    0.0141   -2.1968 H         1 <0>         0.1513
     35 H11         5.0480   -2.4199    1.4367 H         1 <0>         0.1159
     36 H12         3.6493   -2.4639    2.5406 H         1 <0>         0.1129
     37 H13         4.9114    0.1936    1.8835 H         1 <0>         0.0791
     38 H14         5.7259   -0.8771    3.0448 H         1 <0>         0.1050
     39 H15         4.2763    0.6124    4.2641 H         1 <0>         0.0876
     40 H16         3.6018   -1.0240    4.3342 H         1 <0>         0.0784
     41 H17         2.6809    1.1396    2.4152 H         1 <0>         0.0847
     42 H18         1.8880    0.7413    3.9554 H         1 <0>         0.1033
     43 H19         0.6423   -0.5452    2.4498 H         1 <0>         0.1173
     44 H20         1.8807   -1.7196    2.9663 H         1 <0>         0.1349
     45 N2          3.3648   -1.3929    0.6892 N.pl3     1 <0>        -0.6602
     46 H21         3.6769   -1.4704   -0.2859 H         1 <0>         0.4610
@<TRIPOS>BOND
     1    1    6 ar
     2    1    2 ar
     3    1   25 1
     4    2    3 ar
     5    2   26 1
     6    3    4 ar
     7    3   24 1
     8    4    5 ar
     9    4   27 1
    10    5    6 ar
    11    5   28 1
    12    6    7 1
    13    7    8 2
    14    7    9 1
    15    9   10 1
    16    9   29 1
    17    9   30 1
    18   10   11 1
    19   10   18 1
    20   11   16 ar
    21   11   12 ar
    22   12   13 ar
    23   12   31 1
    24   13   14 ar
    25   13   32 1
    26   14   15 ar
    27   14   17 1
    28   15   16 ar
    29   15   33 1
    30   16   34 1
    31   18   23 1
    32   18   45 2
    33   19   20 1
    34   19   35 1
    35   19   36 1
    36   19   45 1
    37   20   21 1
    38   20   37 1
    39   20   38 1
    40   21   22 1
    41   21   39 1
    42   21   40 1
    43   22   23 1
    44   22   41 1
    45   22   42 1
    46   23   43 1
    47   23   44 1
    48   45   46 1
@<TRIPOS>MOLECULE
ZINC22657681
   51    54     0     0     0
SMALL
USER_CHARGES
4-benzyl-3-[(3,4-dichlorophenyl)methylsulfanyl]-5-(pyrrolidin-1-ylmethyl)-1,2,4-triazole
@<TRIPOS>ATOM
      1 C1          1.1750    1.7832    0.0004 C.ar      1 <0>        -0.0964
      2 C2         -0.0126    1.0758    0.0080 C.ar      1 <0>        -0.0938
      3 C3         -1.2190    1.7507    0.0173 C.ar      1 <0>        -0.0865
      4 C4         -1.2377    3.1328    0.0299 C.ar      1 <0>        -0.1195
      5 C5         -0.0501    3.8402    0.0223 C.ar      1 <0>        -0.1447
      6 C6          1.1563    3.1654    0.0076 C.ar      1 <0>        -0.1075
      7 C7         -2.5528    3.8685    0.0455 C.3       1 <0>         0.1293
      8 N1         -2.9917    4.1135   -1.3306 N.pl3     1 <0>        -0.4475
      9 C8         -2.7114    5.2055   -2.1046 C.2       1 <0>         0.1027
     10 N2         -3.2906    5.0228   -3.2575 N.2       1 <0>        -0.2281
     11 N3         -3.9198    3.9021   -3.2624 N.2       1 <0>        -0.2774
     12 C9         -3.7704    3.3017   -2.1045 C.2       1 <0>         0.1908
     13 S1         -4.4460    1.7427   -1.6377 S.3       1 <0>         0.0349
     14 C10        -5.3254    1.3128   -3.1602 C.3       1 <0>        -0.0656
     15 C11        -6.0010   -0.0235   -2.9898 C.ar      1 <0>        -0.0789
     16 C12        -5.3312   -1.1845   -3.3290 C.ar      1 <0>        -0.0806
     17 C13        -5.9476   -2.4110   -3.1680 C.ar      1 <0>        -0.0962
     18 C14        -7.2396   -2.4768   -2.6777 C.ar      1 <0>        -0.0190
     19 C15        -7.9123   -1.3139   -2.3434 C.ar      1 <0>        -0.0321
     20 C16        -7.2917   -0.0873   -2.4999 C.ar      1 <0>        -0.0767
     21 Cl1        -9.5334   -1.3947   -1.7275 Cl        1 <0>        -0.0338
     22 Cl2        -8.0166   -4.0167   -2.4813 Cl        1 <0>        -0.0330
     23 C17        -1.8838    6.3982   -1.7001 C.3       1 <0>         0.0912
     24 N4         -0.4762    6.1566   -2.0438 N.4       1 <0>        -0.4237
     25 C18        -0.3361    5.7639   -3.4695 C.3       1 <0>        -0.0002
     26 C19         1.1520    6.0673   -3.7762 C.3       1 <0>        -0.1423
     27 C20         1.4123    7.3645   -2.9765 C.3       1 <0>        -0.1404
     28 C21         0.3273    7.3881   -1.8841 C.3       1 <0>        -0.0038
     29 H1          2.1175    1.2560   -0.0115 H         1 <0>         0.1380
     30 H2          0.0021   -0.0041    0.0020 H         1 <0>         0.1394
     31 H3         -2.1469    1.1980    0.0188 H         1 <0>         0.1361
     32 H4         -0.0647    4.9201    0.0276 H         1 <0>         0.1063
     33 H5          2.0841    3.7181    0.0014 H         1 <0>         0.1350
     34 H6         -3.3065    3.2612    0.5681 H         1 <0>         0.1266
     35 H7         -2.4295    4.8289    0.5675 H         1 <0>         0.1158
     36 H8         -6.0821    2.0814   -3.3760 H         1 <0>         0.1182
     37 H9         -4.6100    1.2583   -3.9940 H         1 <0>         0.1187
     38 H10        -4.3243   -1.1332   -3.7163 H         1 <0>         0.1434
     39 H11        -5.4223   -3.3178   -3.4293 H         1 <0>         0.1504
     40 H12        -7.8160    0.8202   -2.2396 H         1 <0>         0.1475
     41 H13        -2.2432    7.2913   -2.2323 H         1 <0>         0.1649
     42 H14        -1.9745    6.5565   -0.6153 H         1 <0>         0.1452
     43 H15        -0.5799    4.6971   -3.5816 H         1 <0>         0.1217
     44 H16        -1.0233    6.3637   -4.0843 H         1 <0>         0.1405
     45 H17         1.7752    5.2274   -3.4353 H         1 <0>         0.0952
     46 H18         1.2825    6.2045   -4.8598 H         1 <0>         0.1194
     47 H19         2.4227    7.3314   -2.5428 H         1 <0>         0.1080
     48 H20         1.3297    8.2320   -3.6478 H         1 <0>         0.1096
     49 H21        -0.3226    8.2677   -2.0015 H         1 <0>         0.1364
     50 H22         0.7841    7.4007   -0.8835 H         1 <0>         0.1320
     51 H23        -0.1347    5.3613   -1.3649 H         1 <0>         0.4304
@<TRIPOS>BOND
     1    1    6 ar
     2    1    2 ar
     3    1   29 1
     4    2    3 ar
     5    2   30 1
     6    3    4 ar
     7    3   31 1
     8    4    5 ar
     9    4    7 1
    10    5    6 ar
    11    5   32 1
    12    6   33 1
    13    7    8 1
    14    7   34 1
    15    7   35 1
    16    8   12 1
    17    8    9 1
    18    9   10 2
    19    9   23 1
    20   10   11 1
    21   11   12 2
    22   12   13 1
    23   13   14 1
    24   14   15 1
    25   14   36 1
    26   14   37 1
    27   15   20 ar
    28   15   16 ar
    29   16   17 ar
    30   16   38 1
    31   17   18 ar
    32   17   39 1
    33   18   19 ar
    34   18   22 1
    35   19   20 ar
    36   19   21 1
    37   20   40 1
    38   23   24 1
    39   23   41 1
    40   23   42 1
    41   24   28 1
    42   24   25 1
    43   24   51 1
    44   25   26 1
    45   25   43 1
    46   25   44 1
    47   26   27 1
    48   26   45 1
    49   26   46 1
    50   27   28 1
    51   27   47 1
    52   27   48 1
    53   28   49 1
    54   28   50 1
@<TRIPOS>MOLECULE
ZINC01895472
   55    59     0     0     0
SMALL
USER_CHARGES

@<TRIPOS>ATOM
      1 C1         -0.0789    1.4240   -0.0242 C.3       1 <0>         0.0238
      2 O1         -0.0454   -0.0046   -0.0242 O.3       1 <0>        -0.3098
      3 C2          0.5711   -0.6078   -1.0759 C.ar      1 <0>         0.1233
      4 C3          1.1358    0.1584   -2.0821 C.ar      1 <0>        -0.2036
      5 C4          1.7618   -0.4562   -3.1510 C.ar      1 <0>        -0.0738
      6 C5          1.8265   -1.8355   -3.2191 C.ar      1 <0>        -0.1501
      7 C6          1.2658   -2.6074   -2.2189 C.ar      1 <0>        -0.0839
      8 C7          0.6409   -1.9977   -1.1409 C.ar      1 <0>         0.1205
      9 N1          0.0774   -2.7769   -0.1238 N.pl3     1 <0>        -0.6583
     10 C8         -1.3198   -3.2242   -0.2113 C.3       1 <0>         0.1302
     11 C9         -1.3548   -4.7515   -0.0763 C.3       1 <0>         0.1162
     12 N2         -0.5597   -5.1375    1.0980 N.pl3     1 <0>        -0.6699
     13 C10         0.8375   -4.6901    1.1854 C.3       1 <0>         0.1147
     14 C11         0.8741   -3.1675    1.0477 C.3       1 <0>         0.1293
     15 C12        -1.1173   -5.9085    2.1043 C.ar      1 <0>         0.4814
     16 C13        -1.1338   -7.3193    2.0025 C.ar      1 <0>        -0.0844
     17 C14        -0.6008   -8.0042    0.9057 C.ar      1 <0>        -0.0488
     18 C15        -0.6526   -9.3671    0.8778 C.ar      1 <0>        -0.0767
     19 C16        -1.2274  -10.0847    1.9234 C.ar      1 <0>        -0.0426
     20 C17        -1.7564   -9.4462    3.0070 C.ar      1 <0>        -0.0927
     21 C18        -1.7190   -8.0502    3.0670 C.ar      1 <0>        -0.0424
     22 C19        -2.2464   -7.3159    4.1587 C.ar      1 <0>         0.2563
     23 N3         -2.1707   -5.9964    4.1373 N.ar      1 <0>        -0.2658
     24 N4         -1.6372   -5.3377    3.1770 N.ar      1 <0>        -0.3026
     25 C20        -2.8721   -8.0153    5.3039 C.ar      1 <0>        -0.0990
     26 C21        -2.2599   -9.1409    5.8558 C.ar      1 <0>        -0.0540
     27 C22        -2.8469   -9.7889    6.9226 C.ar      1 <0>        -0.1514
     28 C23        -4.0427   -9.3237    7.4461 C.ar      1 <0>         0.1470
     29 C24        -4.6551   -8.2063    6.9011 C.ar      1 <0>        -0.1526
     30 C25        -4.0730   -7.5476    5.8382 C.ar      1 <0>        -0.0322
     31 F1         -4.6137   -9.9619    8.4910 F         1 <0>        -0.1210
     32 H1          0.9400    1.8114   -0.0279 H         1 <0>         0.0570
     33 H2         -0.6043    1.7751   -0.9123 H         1 <0>         0.0571
     34 H3         -0.5978    1.7753    0.8677 H         1 <0>         0.1008
     35 H4          1.0870    1.2361   -2.0319 H         1 <0>         0.1310
     36 H5          2.2010    0.1429   -3.9349 H         1 <0>         0.1289
     37 H6          2.3161   -2.3112   -4.0561 H         1 <0>         0.1278
     38 H7          1.3175   -3.6847   -2.2748 H         1 <0>         0.1267
     39 H8         -1.8996   -2.7724    0.5935 H         1 <0>         0.0559
     40 H9         -1.7377   -2.9325   -1.1749 H         1 <0>         0.0923
     41 H10        -2.3847   -5.0838    0.0540 H         1 <0>         0.0851
     42 H11        -0.9310   -5.2077   -0.9710 H         1 <0>         0.0886
     43 H12         1.2553   -4.9818    2.1490 H         1 <0>         0.0844
     44 H13         1.4173   -5.1419    0.3806 H         1 <0>         0.0900
     45 H14         1.9047   -2.8383    0.9154 H         1 <0>         0.0920
     46 H15         0.4540   -2.7116    1.9443 H         1 <0>         0.0551
     47 H16        -0.1526   -7.4591    0.0882 H         1 <0>         0.1587
     48 H17        -0.2419   -9.8976    0.0315 H         1 <0>         0.1583
     49 H18        -1.2553  -11.1633    1.8759 H         1 <0>         0.1592
     50 H19        -2.2001  -10.0144    3.8112 H         1 <0>         0.1640
     51 H20        -1.3282   -9.5044    5.4483 H         1 <0>         0.1453
     52 H21        -2.3739  -10.6605    7.3503 H         1 <0>         0.1545
     53 H22        -5.5871   -7.8478    7.3124 H         1 <0>         0.1532
     54 H23        -4.5483   -6.6738    5.4175 H         1 <0>         0.1443
     55 H24        -1.6174   -4.3698    3.2384 H         1 <0>         0.4629
@<TRIPOS>BOND
     1    1    2 1
     2    1   32 1
     3    1   33 1
     4    1   34 1
     5    2    3 1
     6    3    8 ar
     7    3    4 ar
     8    4    5 ar
     9    4   35 1
    10    5    6 ar
    11    5   36 1
    12    6    7 ar
    13    6   37 1
    14    7    8 ar
    15    7   38 1
    16    8    9 1
    17    9   14 1
    18    9   10 1
    19   10   11 1
    20   10   39 1
    21   10   40 1
    22   11   12 1
    23   11   41 1
    24   11   42 1
    25   12   13 1
    26   12   15 1
    27   13   14 1
    28   13   43 1
    29   13   44 1
    30   14   45 1
    31   14   46 1
    32   15   24 ar
    33   15   16 ar
    34   16   21 ar
    35   16   17 ar
    36   17   18 ar
    37   17   47 1
    38   18   19 ar
    39   18   48 1
    40   19   20 ar
    41   19   49 1
    42   20   21 ar
    43   20   50 1
    44   21   22 ar
    45   22   23 ar
    46   22   25 1
    47   23   24 ar
    48   24   55 1
    49   25   30 ar
    50   25   26 ar
    51   26   27 ar
    52   26   51 1
    53   27   28 ar
    54   27   52 1
    55   28   29 ar
    56   28   31 1
    57   29   30 ar
    58   29   53 1
    59   30   54 1
@<TRIPOS>MOLECULE
ZINC57712499
   53    57     0     0     0
SMALL
USER_CHARGES

@<TRIPOS>ATOM
      1 C1          0.3669    1.0221   -0.4184 C.3       1 <0>         0.0215
      2 O1          0.2915   -0.4044   -0.4561 O.3       1 <0>        -0.3086
      3 C2         -0.9447   -0.9598   -0.3546 C.ar      1 <0>         0.1590
      4 C3         -2.0641   -0.1499   -0.2269 C.ar      1 <0>        -0.1979
      5 C4         -3.3156   -0.7203   -0.1227 C.ar      1 <0>        -0.0468
      6 C5         -3.4631   -2.0998   -0.1451 C.ar      1 <0>        -0.1745
      7 C6         -2.3516   -2.9059   -0.2745 C.ar      1 <0>        -0.0497
      8 C7         -1.0932   -2.3370   -0.3837 C.ar      1 <0>        -0.1438
      9 C8         -2.4705   -4.4083   -0.3113 C.3       1 <0>        -0.1050
     10 C9         -3.8432   -4.8319    0.2129 C.3       1 <0>        -0.0046
     11 N1         -4.8749   -4.0624   -0.4991 N.4       1 <0>        -0.3871
     12 C10        -4.8493   -2.6763   -0.0235 C.3       1 <0>         0.0512
     13 C11        -6.1956   -4.6486   -0.2344 C.3       1 <0>         0.0719
     14 C12        -7.2329   -3.9501   -1.0753 C.2       1 <0>        -0.0255
     15 C13        -8.0048   -2.9239   -0.6701 C.2       1 <0>        -0.0823
     16 C14        -8.8284   -2.5663   -1.7416 C.2       1 <0>        -0.1993
     17 C15        -8.5465   -3.3985   -2.8223 C.2       1 <0>         0.0714
     18 N2         -7.5362   -4.2529   -2.3720 N.pl3     1 <0>        -0.4305
     19 C16        -6.9040   -5.3098   -3.1654 C.3       1 <0>         0.1456
     20 C17        -7.7420   -6.5603   -3.0948 C.ar      1 <0>        -0.1413
     21 C18        -7.4476   -7.5373   -2.1621 C.ar      1 <0>        -0.0759
     22 C19        -8.2156   -8.6843   -2.0961 C.ar      1 <0>        -0.1513
     23 C20        -9.2803   -8.8547   -2.9647 C.ar      1 <0>         0.1227
     24 C21        -9.5743   -7.8756   -3.8985 C.ar      1 <0>        -0.1474
     25 C22        -8.8080   -6.7270   -3.9590 C.ar      1 <0>        -0.0621
     26 F1        -10.0316   -9.9758   -2.9014 F         1 <0>        -0.1283
     27 C23        -9.2953   -3.1680   -3.9874 C.2       1 <0>        -0.1572
     28 C24       -10.2206   -2.1880   -4.0115 C.2       1 <0>        -0.1268
     29 S1        -10.1046   -1.5045   -2.3666 S.3       1 <0>         0.1083
     30 H1          1.4075    1.3335   -0.5088 H         1 <0>         0.1109
     31 H2         -0.2100    1.4385   -1.2442 H         1 <0>         0.0621
     32 H3         -0.0394    1.3826    0.5267 H         1 <0>         0.0626
     33 H4         -1.9557    0.9245   -0.2088 H         1 <0>         0.1420
     34 H5         -4.1862   -0.0892   -0.0227 H         1 <0>         0.1375
     35 H6         -0.2241   -2.9696   -0.4875 H         1 <0>         0.1425
     36 H7         -2.3512   -4.7563   -1.3373 H         1 <0>         0.1048
     37 H8         -1.6927   -4.8487    0.3125 H         1 <0>         0.1276
     38 H9         -3.9911   -5.8966    0.0326 H         1 <0>         0.1374
     39 H10        -3.9061   -4.6269    1.2816 H         1 <0>         0.1382
     40 H11        -5.1595   -2.6489    1.0211 H         1 <0>         0.1377
     41 H12        -5.5403   -2.0793   -0.6186 H         1 <0>         0.1386
     42 H13        -6.1791   -5.7093   -0.4847 H         1 <0>         0.1363
     43 H14        -6.4418   -4.5280    0.8206 H         1 <0>         0.1571
     44 H15        -7.9905   -2.4612    0.3057 H         1 <0>         0.1573
     45 H16        -6.8219   -4.9855   -4.2028 H         1 <0>         0.1106
     46 H17        -5.9096   -5.5159   -2.7694 H         1 <0>         0.0891
     47 H18        -6.6168   -7.4043   -1.4850 H         1 <0>         0.1250
     48 H19        -7.9852   -9.4476   -1.3676 H         1 <0>         0.1434
     49 H20       -10.4043   -8.0076   -4.5766 H         1 <0>         0.1447
     50 H21        -9.0399   -5.9611   -4.6843 H         1 <0>         0.1339
     51 H22        -9.1297   -3.7758   -4.8647 H         1 <0>         0.1343
     52 H23       -10.8690   -1.8908   -4.8224 H         1 <0>         0.2004
     53 H24        -4.6875   -4.0828   -1.4903 H         1 <0>         0.4208
@<TRIPOS>BOND
     1    1    2 1
     2    1   30 1
     3    1   31 1
     4    1   32 1
     5    2    3 1
     6    3    8 ar
     7    3    4 ar
     8    4    5 ar
     9    4   33 1
    10    5    6 ar
    11    5   34 1
    12    6   12 1
    13    6    7 ar
    14    7    8 ar
    15    7    9 1
    16    8   35 1
    17    9   10 1
    18    9   36 1
    19    9   37 1
    20   10   11 1
    21   10   38 1
    22   10   39 1
    23   11   12 1
    24   11   13 1
    25   11   53 1
    26   12   40 1
    27   12   41 1
    28   13   14 1
    29   13   42 1
    30   13   43 1
    31   14   18 1
    32   14   15 2
    33   15   16 1
    34   15   44 1
    35   16   29 1
    36   16   17 2
    37   17   18 1
    38   17   27 1
    39   18   19 1
    40   19   20 1
    41   19   45 1
    42   19   46 1
    43   20   25 ar
    44   20   21 ar
    45   21   22 ar
    46   21   47 1
    47   22   23 ar
    48   22   48 1
    49   23   24 ar
    50   23   26 1
    51   24   25 ar
    52   24   49 1
    53   25   50 1
    54   27   28 2
    55   27   51 1
    56   28   29 1
    57   28   52 1
@<TRIPOS>MOLECULE
ZINC05025805
   39    42     0     0     0
SMALL
USER_CHARGES
5-[[5-(2-furylmethylsulfanyl)-2-furyl]methylene]-3-phenyl-2-thioxo-thiazolidin-4-one
@<TRIPOS>ATOM
      1 C1         -8.4908   -2.0327    0.0740 C.ar      1 <0>        -0.0956
      2 C2         -7.5600   -2.3539    1.0448 C.ar      1 <0>        -0.1073
      3 C3         -6.3173   -1.7512    1.0383 C.ar      1 <0>        -0.0854
      4 C4         -6.0029   -0.8223    0.0553 C.ar      1 <0>         0.0944
      5 C5         -6.9414   -0.4983   -0.9153 C.ar      1 <0>        -0.0854
      6 C6         -8.1806   -1.1084   -0.9065 C.ar      1 <0>        -0.1073
      7 N1         -4.7432   -0.2087    0.0463 N.am      1 <0>        -0.4803
      8 C7         -3.7526   -0.7641   -0.6297 C.2       1 <0>         0.5434
      9 O1         -3.9200   -1.8024   -1.2460 O.2       1 <0>        -0.4566
     10 C8         -2.4852   -0.1200   -0.6145 C.2       1 <0>        -0.2665
     11 C9         -1.3062   -0.4901   -1.2257 C.2       1 <0>         0.1410
     12 C10        -0.1581    0.3089   -1.0809 C.2       1 <0>        -0.0562
     13 C11         1.0856    0.0573   -1.6369 C.2       1 <0>        -0.0871
     14 C12         1.9226    1.1007   -1.2367 C.2       1 <0>        -0.1897
     15 C13         1.1767    1.9429   -0.4618 C.2       1 <0>         0.0163
     16 O2         -0.0728    1.4587   -0.3738 O.3       1 <0>        -0.1535
     17 S1          1.7588    3.4223    0.2979 S.3       1 <0>         0.0355
     18 C14         0.2448    3.9663    1.1275 C.3       1 <0>        -0.0442
     19 C15         0.5108    5.2533    1.8649 C.2       1 <0>        -0.0240
     20 C16         0.3720    6.4924    1.3601 C.2       1 <0>        -0.1703
     21 C17         0.7224    7.3958    2.3896 C.2       1 <0>        -0.2160
     22 C18         1.0623    6.6546    3.4594 C.2       1 <0>        -0.0186
     23 O3          0.9323    5.3577    3.1358 O.3       1 <0>        -0.1692
     24 S2         -2.8384    1.3045    0.4060 S.3       1 <0>         0.0790
     25 C19        -4.5594    0.9463    0.7244 C.2       1 <0>         0.2716
     26 S3         -5.6882    1.8382    1.6524 S.2       1 <0>        -0.3133
     27 H1         -9.4620   -2.5051    0.0814 H         1 <0>         0.1333
     28 H2         -7.8050   -3.0765    1.8091 H         1 <0>         0.1352
     29 H3         -5.5907   -2.0024    1.7968 H         1 <0>         0.1254
     30 H4         -6.7014    0.2271   -1.6785 H         1 <0>         0.1254
     31 H5         -8.9096   -0.8598   -1.6637 H         1 <0>         0.1352
     32 H6         -1.2642   -1.3938   -1.8156 H         1 <0>         0.1880
     33 H7          1.3554   -0.7829   -2.2596 H         1 <0>         0.1729
     34 H8          2.9650    1.2202   -1.4927 H         1 <0>         0.1683
     35 H9         -0.5379    4.1273    0.3862 H         1 <0>         0.1269
     36 H10        -0.0765    3.2019    1.8350 H         1 <0>         0.1165
     37 H11         0.0520    6.7481    0.3608 H         1 <0>         0.1545
     38 H12         0.7209    8.4740    2.3278 H         1 <0>         0.1547
     39 H13         1.3854    7.0376    4.4162 H         1 <0>         0.2091
@<TRIPOS>BOND
     1    1    6 ar
     2    1    2 ar
     3    1   27 1
     4    2    3 ar
     5    2   28 1
     6    3    4 ar
     7    3   29 1
     8    4    5 ar
     9    4    7 1
    10    5    6 ar
    11    5   30 1
    12    6   31 1
    13    7   25 1
    14    7    8 am
    15    8    9 2
    16    8   10 1
    17   10   11 2
    18   10   24 1
    19   11   12 1
    20   11   32 1
    21   12   16 1
    22   12   13 2
    23   13   14 1
    24   13   33 1
    25   14   15 2
    26   14   34 1
    27   15   16 1
    28   15   17 1
    29   17   18 1
    30   18   19 1
    31   18   35 1
    32   18   36 1
    33   19   23 1
    34   19   20 2
    35   20   21 1
    36   20   37 1
    37   21   22 2
    38   21   38 1
    39   22   23 1
    40   22   39 1
    41   24   25 1
    42   25   26 2
@<TRIPOS>MOLECULE
ZINC11297082
   34    36     0     0     0
SMALL
USER_CHARGES
2-[2-(4-bromophenyl)sulfonylethylsulfanyl]benzooxazole
@<TRIPOS>ATOM
      1 C1          4.0612   -0.5859   -0.0399 C.ar      1 <0>        -0.1149
      2 C2          3.2858   -1.7352   -0.0386 C.ar      1 <0>        -0.0895
      3 C3          1.9081   -1.6500   -0.0250 C.ar      1 <0>        -0.0908
      4 C4          1.2931   -0.4088   -0.0125 C.ar      1 <0>         0.0116
      5 C5          2.0738    0.7568   -0.0137 C.ar      1 <0>         0.0300
      6 C6          3.4658    0.6565   -0.0271 C.ar      1 <0>        -0.0608
      7 N1          1.2076    1.8066    0.0002 N.2       1 <0>        -0.4774
      8 C7         -0.0162    1.3409    0.0094 C.2       1 <0>         0.2104
      9 O1          0.0021   -0.0041    0.0020 O.3       1 <0>        -0.1924
     10 S1         -1.4735    2.3311    0.0220 S.3       1 <0>         0.0909
     11 C8         -0.7317    3.9821    0.0273 C.3       1 <0>        -0.1172
     12 C9         -1.8385    5.0385    0.0385 C.3       1 <0>        -0.6053
     13 S2         -1.0950    6.6931    0.0438 S.o2      1 <0>         2.5078
     14 O2         -0.4274    6.9258    1.2765 O.2       1 <0>        -0.9196
     15 O3         -0.4396    6.9392   -1.1927 O.2       1 <0>        -0.9196
     16 C10        -2.4627    7.8040    0.0566 C.ar      1 <0>        -0.6513
     17 C11        -3.0013    8.2506   -1.1357 C.ar      1 <0>        -0.0154
     18 C12        -4.0772    9.1183   -1.1261 C.ar      1 <0>        -0.1112
     19 C13        -4.6082    9.5479    0.0767 C.ar      1 <0>        -0.0381
     20 C14        -4.0656    9.1049    1.2694 C.ar      1 <0>        -0.1112
     21 C15        -2.9931    8.2331    1.2589 C.ar      1 <0>        -0.0154
     22 Br1        -6.0760   10.7402    0.0904 Br        1 <0>        -0.0291
     23 H1          5.1382   -0.6649   -0.0506 H         1 <0>         0.1410
     24 H2          3.7631   -2.7040   -0.0488 H         1 <0>         0.1440
     25 H3          1.3106   -2.5496   -0.0245 H         1 <0>         0.1382
     26 H4          4.0738    1.5491   -0.0273 H         1 <0>         0.1390
     27 H5         -0.1097    4.0981    0.9149 H         1 <0>         0.1209
     28 H6         -0.1185    4.1078   -0.8651 H         1 <0>         0.1210
     29 H7         -2.4605    4.9225   -0.8491 H         1 <0>         0.1515
     30 H8         -2.4517    4.9128    0.9308 H         1 <0>         0.1515
     31 H9         -2.5839    7.9183   -2.0747 H         1 <0>         0.1542
     32 H10        -4.5007    9.4637   -2.0576 H         1 <0>         0.1467
     33 H11        -4.4802    9.4398    2.2088 H         1 <0>         0.1467
     34 H12        -2.5696    7.8869    2.1901 H         1 <0>         0.1541
@<TRIPOS>BOND
     1    1    6 ar
     2    1    2 ar
     3    1   23 1
     4    2    3 ar
     5    2   24 1
     6    3    4 ar
     7    3   25 1
     8    4    9 1
     9    4    5 ar
    10    5    6 ar
    11    5    7 1
    12    6   26 1
    13    7    8 2
    14    8    9 1
    15    8   10 1
    16   10   11 1
    17   11   12 1
    18   11   27 1
    19   11   28 1
    20   12   13 1
    21   12   29 1
    22   12   30 1
    23   13   14 2
    24   13   15 2
    25   13   16 1
    26   16   21 ar
    27   16   17 ar
    28   17   18 ar
    29   17   31 1
    30   18   19 ar
    31   18   32 1
    32   19   20 ar
    33   19   22 1
    34   20   21 ar
    35   20   33 1
    36   21   34 1
@<TRIPOS>MOLECULE
ZINC29292413
   40    41     0     0     0
SMALL
USER_CHARGES
5-bromo-2-chloro-N-[[4-(difluoromethoxy)-3-methoxy-phenyl]methyl]-N-methyl-benzamide
@<TRIPOS>ATOM
      1 C1         -3.1576    2.8740   -2.3257 C.3       1 <0>         0.0101
      2 N1         -2.6757    3.9525   -1.4591 N.am      1 <0>        -0.6012
      3 C2         -2.2534    3.6569   -0.0878 C.3       1 <0>         0.1577
      4 C3         -0.7823    3.3301   -0.0745 C.ar      1 <0>        -0.0943
      5 C4         -0.3645    2.0233   -0.2455 C.ar      1 <0>        -0.1051
      6 C5          0.9836    1.7177   -0.2289 C.ar      1 <0>        -0.1565
      7 C6          1.9199    2.7236   -0.0520 C.ar      1 <0>         0.0799
      8 C7          1.4996    4.0397    0.1143 C.ar      1 <0>         0.1141
      9 C8          0.1466    4.3385    0.1023 C.ar      1 <0>        -0.1496
     10 O1          2.4148    5.0305    0.2886 O.3       1 <0>        -0.3064
     11 C9          1.9108    6.3575    0.4531 C.3       1 <0>         0.0226
     12 O2          3.2467    2.4255   -0.0415 O.3       1 <0>        -0.3081
     13 C10         3.6048    1.0534   -0.2185 C.3       1 <0>         0.4075
     14 F1          3.0393    0.2879    0.8069 F         1 <0>        -0.1998
     15 F2          3.1280    0.6028   -1.4541 F         1 <0>        -0.2003
     16 C11        -2.6208    5.2165   -1.9235 C.2       1 <0>         0.5589
     17 O3         -2.1352    6.0953   -1.2381 O.2       1 <0>        -0.5064
     18 C12        -3.1510    5.5342   -3.2657 C.ar      1 <0>        -0.1216
     19 C13        -4.1005    4.7008   -3.8600 C.ar      1 <0>        -0.0830
     20 C14        -4.5950    5.0059   -5.1116 C.ar      1 <0>        -0.1008
     21 C15        -4.1438    6.1302   -5.7830 C.ar      1 <0>        -0.0530
     22 C16        -3.1998    6.9572   -5.2030 C.ar      1 <0>        -0.1112
     23 C17        -2.7001    6.6666   -3.9482 C.ar      1 <0>         0.0265
     24 Cl1        -1.5153    7.7065   -3.2212 Cl        1 <0>        -0.0222
     25 Br1        -5.8868    3.8826   -5.9148 Br        1 <0>        -0.0282
     26 H1         -3.4265    3.2865   -3.3094 H         1 <0>         0.1231
     27 H2         -4.0425    2.4054   -1.8703 H         1 <0>         0.0747
     28 H3         -2.3657    2.1204   -2.4481 H         1 <0>         0.0697
     29 H4         -2.4401    4.5333    0.5503 H         1 <0>         0.0981
     30 H5         -2.8234    2.7971    0.2942 H         1 <0>         0.0946
     31 H6         -1.0931    1.2390   -0.3883 H         1 <0>         0.1301
     32 H7          1.3071    0.6954   -0.3581 H         1 <0>         0.1406
     33 H8         -0.1822    5.3591    0.2309 H         1 <0>         0.1476
     34 H9          2.7511    7.0553    0.5837 H         1 <0>         0.1038
     35 H10         1.2613    6.3957    1.3400 H         1 <0>         0.0580
     36 H11         1.3321    6.6430   -0.4378 H         1 <0>         0.0594
     37 H12         4.6977    0.9317   -0.1926 H         1 <0>         0.1858
     38 H13        -4.4500    3.8214   -3.3396 H         1 <0>         0.1839
     39 H14        -4.5310    6.3617   -6.7643 H         1 <0>         0.1493
     40 H15        -2.8521    7.8321   -5.7322 H         1 <0>         0.1519
@<TRIPOS>BOND
     1    1    2 1
     2    1   26 1
     3    1   27 1
     4    1   28 1
     5    2    3 1
     6    2   16 am
     7    3    4 1
     8    3   29 1
     9    3   30 1
    10    4    9 ar
    11    4    5 ar
    12    5    6 ar
    13    5   31 1
    14    6    7 ar
    15    6   32 1
    16    7    8 ar
    17    7   12 1
    18    8    9 ar
    19    8   10 1
    20    9   33 1
    21   10   11 1
    22   11   34 1
    23   11   35 1
    24   11   36 1
    25   12   13 1
    26   13   14 1
    27   13   15 1
    28   13   37 1
    29   16   17 2
    30   16   18 1
    31   18   23 ar
    32   18   19 ar
    33   19   20 ar
    34   19   38 1
    35   20   21 ar
    36   20   25 1
    37   21   22 ar
    38   21   39 1
    39   22   23 ar
    40   22   40 1
    41   23   24 1
@<TRIPOS>MOLECULE
ZINC55690369
   40    42     0     0     0
SMALL
USER_CHARGES

@<TRIPOS>ATOM
      1 C1         -1.5673    1.9385    0.4444 C.3       1 <0>        -0.1106
      2 C2         -0.2366    1.2470    0.5927 C.2       1 <0>        -0.0211
      3 C3          0.8179    1.5010   -0.2528 C.2       1 <0>        -0.1900
      4 C4          1.9877    0.8433   -0.0626 C.2       1 <0>        -0.2116
      5 S1          1.6959   -0.1401    1.2678 S.3       1 <0>         0.2265
      6 C5          0.0044    0.3188    1.5935 C.2       1 <0>        -0.3010
      7 C6         -0.8987   -0.1625    2.6462 C.2       1 <0>         0.5105
      8 O1         -2.0379    0.2677    2.7160 O.2       1 <0>        -0.4170
      9 C7         -0.4324   -1.1576    3.6111 C.2       1 <0>        -0.1768
     10 C8         -0.1907   -0.7856    4.9388 C.2       1 <0>         0.1786
     11 N1         -0.2005    0.4729    5.4729 N.am      1 <0>        -0.5397
     12 C9          0.0516    0.6511    6.7613 C.2       1 <0>         0.5490
     13 O2          0.0523    1.7551    7.2761 O.2       1 <0>        -0.4612
     14 C10         0.3218   -0.5357    7.5062 C.2       1 <0>        -0.2897
     15 C11         0.6123   -0.6776    8.8323 C.2       1 <0>         0.1628
     16 C12         0.8157    0.4658    9.6373 C.2       1 <0>        -0.2577
     17 C13         0.5582    0.6410   10.9940 C.2       1 <0>        -0.0783
     18 C14         0.8645    1.8804   11.5016 C.2       1 <0>        -0.1960
     19 C15         1.3815    2.8231   10.6747 C.2       1 <0>        -0.2558
     20 S2          1.4763    2.0578    9.1822 S.3       1 <0>         0.3389
     21 S3          0.1704   -1.7853    6.2414 S.3       1 <0>         0.1435
     22 C16        -0.4900    1.6272    4.6185 C.3       1 <0>         0.1147
     23 C17        -1.9610    1.9470    4.6876 C.2       1 <0>        -0.1811
     24 C18        -2.3546    3.1511    5.0213 C.2       1 <0>        -0.1529
     25 C19        -0.2230   -2.5125    3.1977 C.1       1 <0>         0.2658
     26 N2         -0.0568   -3.5874    2.8698 N.1       1 <0>        -0.3917
     27 H1         -1.5661    2.8582    1.0294 H         1 <0>         0.0792
     28 H2         -1.7383    2.1760   -0.6056 H         1 <0>         0.0698
     29 H3         -2.3601    1.2814    0.8020 H         1 <0>         0.0878
     30 H4          0.7152    2.2142   -1.0572 H         1 <0>         0.1399
     31 H5          2.8990    0.9314   -0.6355 H         1 <0>         0.1914
     32 H6          0.6868   -1.6638    9.2662 H         1 <0>         0.1657
     33 H7          0.1443   -0.1457   11.6073 H         1 <0>         0.1458
     34 H8          0.6956    2.1013   12.5452 H         1 <0>         0.1333
     35 H9          1.6708    3.8341   10.9208 H         1 <0>         0.1850
     36 H10         0.0853    2.4869    4.9620 H         1 <0>         0.1057
     37 H11        -0.2166    1.3949    3.5892 H         1 <0>         0.1032
     38 H12        -2.6908    1.1835    4.4620 H         1 <0>         0.1316
     39 H13        -3.4089    3.3802    5.0708 H         1 <0>         0.1051
     40 H14        -1.6249    3.9146    5.2468 H         1 <0>         0.0984
@<TRIPOS>BOND
     1    1    2 1
     2    1   27 1
     3    1   28 1
     4    1   29 1
     5    2    6 2
     6    2    3 1
     7    3    4 2
     8    3   30 1
     9    4    5 1
    10    4   31 1
    11    5    6 1
    12    6    7 1
    13    7    8 2
    14    7    9 1
    15    9   10 2
    16    9   25 1
    17   10   21 1
    18   10   11 1
    19   11   12 am
    20   11   22 1
    21   12   13 2
    22   12   14 1
    23   14   15 2
    24   14   21 1
    25   15   16 1
    26   15   32 1
    27   16   20 1
    28   16   17 2
    29   17   18 1
    30   17   33 1
    31   18   19 2
    32   18   34 1
    33   19   20 1
    34   19   35 1
    35   22   23 1
    36   22   36 1
    37   22   37 1
    38   23   24 2
    39   23   38 1
    40   24   39 1
    41   24   40 1
    42   25   26 3
@<TRIPOS>MOLECULE
ZINC46638795
   56    58     0     0     0
SMALL
USER_CHARGES

@<TRIPOS>ATOM
      1 C1         -3.7580  -10.3114   -0.0659 C.3       1 <0>        -0.0640
      2 C2         -2.8742   -9.0908   -0.0557 C.2       1 <0>         0.0047
      3 N1         -3.2367   -7.8374   -0.0422 N.2       1 <0>        -0.4838
      4 C3         -2.2840   -6.8985   -0.0350 C.2       1 <0>         0.0528
      5 C4         -0.9828   -7.3642   -0.0428 C.2       1 <0>        -0.2825
      6 S1         -1.1969   -9.0305   -0.0518 S.3       1 <0>         0.2545
      7 C5         -2.6002   -5.4659   -0.0202 C.2       1 <0>         0.0141
      8 C6         -3.8895   -5.0581   -0.0129 C.2       1 <0>        -0.2013
      9 C7         -4.1949   -3.6744    0.0014 C.2       1 <0>         0.5531
     10 O1         -3.3001   -2.8544    0.0985 O.2       1 <0>        -0.5463
     11 N2         -5.4759   -3.2660   -0.0925 N.am      1 <0>        -0.6109
     12 C8         -5.7999   -1.8371   -0.2014 C.3       1 <0>         0.1123
     13 C9         -6.8087   -1.4755    0.8933 C.3       1 <0>        -0.1219
     14 C10        -8.0207   -2.4044    0.7915 C.3       1 <0>        -0.1311
     15 C11        -7.5748   -3.8527    1.0049 C.3       1 <0>        -0.1232
     16 C12        -6.5744   -4.2416   -0.0942 C.3       1 <0>         0.1070
     17 C13        -9.0305   -2.0295    1.8455 C.2       1 <0>         0.4019
     18 O2         -8.6707   -1.4640    2.8559 O.2       1 <0>        -0.4465
     19 C14       -10.4533   -2.3497    1.6483 C.ar      1 <0>        -0.1759
     20 C15       -10.8715   -3.0070    0.4868 C.ar      1 <0>        -0.0705
     21 C16       -12.2063   -3.3039    0.3097 C.ar      1 <0>        -0.1294
     22 C17       -13.1313   -2.9533    1.2776 C.ar      1 <0>        -0.0437
     23 C18       -12.7255   -2.3022    2.4295 C.ar      1 <0>        -0.1307
     24 C19       -11.3935   -2.0034    2.6241 C.ar      1 <0>        -0.0572
     25 C20       -14.5882   -3.2816    1.0759 C.3       1 <0>        -0.0846
     26 C21       -14.8843   -4.6656    1.6571 C.3       1 <0>        -0.0909
     27 C22       -16.3853   -4.9471    1.5649 C.3       1 <0>        -0.1491
     28 C23       -14.1169   -5.7262    0.8651 C.3       1 <0>        -0.1525
     29 H1         -3.1387  -11.2084   -0.0712 H         1 <0>         0.0855
     30 H2         -4.3888  -10.3107    0.8230 H         1 <0>         0.0901
     31 H3         -4.3857  -10.2981   -0.9569 H         1 <0>         0.0903
     32 H4         -0.0618   -6.8000   -0.0397 H         1 <0>         0.2013
     33 H5         -1.8032   -4.7370   -0.0151 H         1 <0>         0.1457
     34 H6         -4.6864   -5.7870   -0.0179 H         1 <0>         0.1402
     35 H7         -4.8933   -1.2459   -0.0725 H         1 <0>         0.0984
     36 H8         -6.2346   -1.6345   -1.1803 H         1 <0>         0.0701
     37 H9         -6.3419   -1.5924    1.8713 H         1 <0>         0.0788
     38 H10        -7.1306   -0.4421    0.7645 H         1 <0>         0.0796
     39 H11        -8.4724   -2.3052   -0.1955 H         1 <0>         0.1006
     40 H12        -7.1007   -3.9473    1.9818 H         1 <0>         0.0760
     41 H13        -8.4419   -4.5114    0.9555 H         1 <0>         0.0843
     42 H14        -7.0710   -4.2312   -1.0644 H         1 <0>         0.0751
     43 H15        -6.1789   -5.2375    0.1055 H         1 <0>         0.0965
     44 H16       -10.1508   -3.2810   -0.2695 H         1 <0>         0.1318
     45 H17       -12.5308   -3.8112   -0.5868 H         1 <0>         0.1290
     46 H18       -13.4534   -2.0315    3.1801 H         1 <0>         0.1282
     47 H19       -11.0777   -1.4993    3.5255 H         1 <0>         0.1325
     48 H20       -15.2021   -2.5363    1.5817 H         1 <0>         0.0762
     49 H21       -14.8173   -3.2785    0.0103 H         1 <0>         0.0767
     50 H22       -14.5725   -4.6956    2.7012 H         1 <0>         0.0714
     51 H23       -16.6971   -4.9171    0.5209 H         1 <0>         0.0560
     52 H24       -16.5963   -5.9331    1.9790 H         1 <0>         0.0570
     53 H25       -16.9320   -4.1915    2.1292 H         1 <0>         0.0555
     54 H26       -14.4287   -5.6963   -0.1789 H         1 <0>         0.0552
     55 H27       -13.0476   -5.5257    0.9308 H         1 <0>         0.0586
     56 H28       -14.3279   -6.7122    1.2792 H         1 <0>         0.0549
@<TRIPOS>BOND
     1    1    2 1
     2    1   29 1
     3    1   30 1
     4    1   31 1
     5    2    6 1
     6    2    3 2
     7    3    4 1
     8    4    5 2
     9    4    7 1
    10    5    6 1
    11    5   32 1
    12    7    8 2
    13    7   33 1
    14    8    9 1
    15    8   34 1
    16    9   10 2
    17    9   11 am
    18   11   16 1
    19   11   12 1
    20   12   13 1
    21   12   35 1
    22   12   36 1
    23   13   14 1
    24   13   37 1
    25   13   38 1
    26   14   15 1
    27   14   17 1
    28   14   39 1
    29   15   16 1
    30   15   40 1
    31   15   41 1
    32   16   42 1
    33   16   43 1
    34   17   18 2
    35   17   19 1
    36   19   24 ar
    37   19   20 ar
    38   20   21 ar
    39   20   44 1
    40   21   22 ar
    41   21   45 1
    42   22   23 ar
    43   22   25 1
    44   23   24 ar
    45   23   46 1
    46   24   47 1
    47   25   26 1
    48   25   48 1
    49   25   49 1
    50   26   27 1
    51   26   28 1
    52   26   50 1
    53   27   51 1
    54   27   52 1
    55   27   53 1
    56   28   54 1
    57   28   55 1
    58   28   56 1
@<TRIPOS>MOLECULE
ZINC00710320
   55    59     0     0     0
SMALL
USER_CHARGES
N-[4-(9H-fluoren-9-yl)piperazin-1-yl]-1-(4-methoxyphenyl)-methanimine
@<TRIPOS>ATOM
      1 C1         -6.2263    4.5864   10.4124 C.3       1 <0>         0.0238
      2 O1         -6.9044    5.0935    9.2613 O.3       1 <0>        -0.3127
      3 C2         -6.1492    5.3380    8.1584 C.ar      1 <0>         0.1514
      4 C3         -6.7465    5.8317    7.0060 C.ar      1 <0>        -0.1545
      5 C4         -5.9845    6.0807    5.8847 C.ar      1 <0>        -0.0489
      6 C5         -4.6093    5.8357    5.9088 C.ar      1 <0>        -0.1033
      7 C6         -4.0136    5.3340    7.0687 C.ar      1 <0>        -0.0385
      8 C7         -4.7826    5.0930    8.1869 C.ar      1 <0>        -0.2144
      9 C8         -3.7898    6.1001    4.7115 C.2       1 <0>         0.1038
     10 N1         -2.5128    5.8719    4.7360 N.2       1 <0>        -0.2301
     11 N2         -1.7180    6.2185    3.6356 N.pl3     1 <0>        -0.5598
     12 C9         -2.3249    6.7295    2.3971 C.3       1 <0>         0.0735
     13 C10        -1.7845    5.9140    1.2177 C.3       1 <0>        -0.0230
     14 C11         0.2042    5.2906    2.4578 C.3       1 <0>        -0.0174
     15 C12        -0.2547    6.0807    3.6880 C.3       1 <0>         0.1437
     16 C13         0.2412    5.3103    0.0368 C.3       1 <0>         0.1410
     17 C14        -0.0391    3.8275    0.0421 C.ar      1 <0>        -0.1464
     18 C15        -1.2150    3.1077    0.0518 C.ar      1 <0>        -0.0866
     19 C16        -1.1805    1.7244    0.0497 C.ar      1 <0>        -0.1023
     20 C17         0.0332    1.0610    0.0476 C.ar      1 <0>        -0.0851
     21 C18         1.2146    1.7730    0.0374 C.ar      1 <0>        -0.0859
     22 C19         1.1875    3.1688    0.0346 C.ar      1 <0>        -0.0342
     23 C20         2.2847    4.1677    0.0243 C.ar      1 <0>        -0.0326
     24 C21         1.7437    5.4506    0.0255 C.ar      1 <0>        -0.1577
     25 C22         2.5704    6.5540    0.0166 C.ar      1 <0>        -0.0816
     26 C23         3.9443    6.3901    0.0065 C.ar      1 <0>        -0.1028
     27 C24         4.4912    5.1196    0.0053 C.ar      1 <0>        -0.0837
     28 C25         3.6717    4.0100    0.0145 C.ar      1 <0>        -0.0874
     29 H1         -6.9434    4.4358   11.2194 H         1 <0>         0.1059
     30 H2         -5.7522    3.6365   10.1656 H         1 <0>         0.0589
     31 H3         -5.4663    5.3001   10.7302 H         1 <0>         0.0592
     32 H4         -7.8097    6.0205    6.9882 H         1 <0>         0.1389
     33 H5         -6.4499    6.4643    4.9888 H         1 <0>         0.1347
     34 H6         -2.9515    5.1393    7.0905 H         1 <0>         0.1328
     35 H7         -4.3223    4.7094    9.0854 H         1 <0>         0.1339
     36 H8         -4.2527    6.4837    3.8143 H         1 <0>         0.1177
     37 H9         -2.0627    7.7795    2.2670 H         1 <0>         0.0889
     38 H10        -3.4085    6.6237    2.4496 H         1 <0>         0.1207
     39 H11        -2.1376    6.3488    0.2826 H         1 <0>         0.1387
     40 H12        -2.1353    4.8849    1.2955 H         1 <0>         0.1354
     41 H13        -0.1742    4.2703    2.5188 H         1 <0>         0.1330
     42 H14         1.2935    5.2734    2.4220 H         1 <0>         0.1373
     43 H15         0.2066    7.0682    3.6819 H         1 <0>         0.0853
     44 H16         0.0305    5.5458    4.5939 H         1 <0>         0.1274
     45 H17        -0.1853    5.7697   -0.8548 H         1 <0>         0.1544
     46 H18        -2.1636    3.6239    0.0576 H         1 <0>         0.1307
     47 H19        -2.1025    1.1620    0.0535 H         1 <0>         0.1414
     48 H20         0.0559   -0.0188    0.0495 H         1 <0>         0.1418
     49 H21         2.1600    1.2510    0.0320 H         1 <0>         0.1371
     50 H22         2.1453    7.5468    0.0179 H         1 <0>         0.1327
     51 H23         4.5905    7.2554   -0.0008 H         1 <0>         0.1423
     52 H24         5.5641    4.9959   -0.0023 H         1 <0>         0.1418
     53 H25         4.1029    3.0198    0.0139 H         1 <0>         0.1367
     54 N3         -0.3065    5.9636    1.2437 N.4       1 <0>        -0.3821
     55 H26        -0.0066    6.9455    1.2564 H         1 <0>         0.4265
@<TRIPOS>BOND
     1    1    2 1
     2    1   29 1
     3    1   30 1
     4    1   31 1
     5    2    3 1
     6    3    8 ar
     7    3    4 ar
     8    4    5 ar
     9    4   32 1
    10    5    6 ar
    11    5   33 1
    12    6    7 ar
    13    6    9 1
    14    7    8 ar
    15    7   34 1
    16    8   35 1
    17    9   10 2
    18    9   36 1
    19   10   11 1
    20   11   15 1
    21   11   12 1
    22   12   13 1
    23   12   37 1
    24   12   38 1
    25   13   39 1
    26   13   40 1
    27   13   54 1
    28   14   15 1
    29   14   41 1
    30   14   42 1
    31   14   54 1
    32   15   43 1
    33   15   44 1
    34   16   24 1
    35   16   17 1
    36   16   45 1
    37   16   54 1
    38   17   22 ar
    39   17   18 ar
    40   18   19 ar
    41   18   46 1
    42   19   20 ar
    43   19   47 1
    44   20   21 ar
    45   20   48 1
    46   21   22 ar
    47   21   49 1
    48   22   23 1
    49   23   28 ar
    50   23   24 ar
    51   24   25 ar
    52   25   26 ar
    53   25   50 1
    54   26   27 ar
    55   26   51 1
    56   27   28 ar
    57   27   52 1
    58   28   53 1
    59   54   55 1
@<TRIPOS>MOLECULE
ZINC14992323
   52    55     0     0     0
SMALL
USER_CHARGES
5-(3-fluorophenyl)-4-[1-[(5-methyl-2-furyl)methyl]-4-piperidyl]-2-(trifluoromethyl)pyrimidine
@<TRIPOS>ATOM
      1 C1          2.2677    7.5066   -9.5634 C.3       1 <0>        -0.0908
      2 C2          1.3780    7.0582   -8.4327 C.2       1 <0>         0.0472
      3 C3          0.6869    5.9052   -8.3853 C.2       1 <0>        -0.2222
      4 C4         -0.0065    5.8936   -7.1533 C.2       1 <0>        -0.1363
      5 C5          0.3023    7.0403   -6.5215 C.2       1 <0>        -0.1142
      6 O1          1.1367    7.7444   -7.3037 O.3       1 <0>        -0.1667
      7 C6         -0.2067    7.4657   -5.1683 C.3       1 <0>         0.0961
      8 C7          0.1298    7.1674   -2.7896 C.3       1 <0>         0.0012
      9 C8          1.1641    6.7884   -1.7273 C.3       1 <0>        -0.1422
     10 C9          1.5800    5.3281   -1.9248 C.3       1 <0>        -0.0588
     11 C10         2.1338    5.1491   -3.3411 C.3       1 <0>        -0.1363
     12 C11         1.0718    5.5770   -4.3567 C.3       1 <0>        -0.0062
     13 C12         2.6425    4.9665   -0.9192 C.ar      1 <0>         0.1870
     14 C13         2.4287    3.9357   -0.0005 C.ar      1 <0>        -0.1095
     15 C14         3.4491    3.6382    0.9058 C.ar      1 <0>         0.1790
     16 N1          4.5679    4.3413    0.8635 N.ar      1 <0>        -0.4621
     17 C15         4.7270    5.3096   -0.0165 C.ar      1 <0>         0.2493
     18 N2          3.7895    5.6227   -0.8892 N.ar      1 <0>        -0.4718
     19 C16         6.0207    6.0825   -0.0259 C.3       1 <0>         0.5463
     20 F1          6.9828    5.3902    0.7173 F         1 <0>        -0.1480
     21 F2          6.4665    6.2297   -1.3438 F         1 <0>        -0.1584
     22 F3          5.8138    7.3450    0.5402 F         1 <0>        -0.1597
     23 C17         1.1552    3.1740    0.0081 C.ar      1 <0>        -0.0323
     24 C18         1.1740    1.7805    0.0004 C.ar      1 <0>        -0.1049
     25 C19        -0.0126    1.0758    0.0080 C.ar      1 <0>        -0.0766
     26 C20        -1.2205    1.7494    0.0174 C.ar      1 <0>        -0.1357
     27 C21        -1.2463    3.1343    0.0308 C.ar      1 <0>         0.1062
     28 C22        -0.0628    3.8494    0.0233 C.ar      1 <0>        -0.1467
     29 F4         -2.4290    3.7871    0.0456 F         1 <0>        -0.1318
     30 H1          1.6807    8.0767  -10.2835 H         1 <0>         0.0955
     31 H2          3.0678    8.1333   -9.1695 H         1 <0>         0.0853
     32 H3          2.6981    6.6342  -10.0550 H         1 <0>         0.1012
     33 H4          0.6656    5.1360   -9.1431 H         1 <0>         0.1626
     34 H5         -0.6585    5.1135   -6.7890 H         1 <0>         0.1604
     35 H6         -1.1990    7.0451   -5.0048 H         1 <0>         0.1568
     36 H7         -0.2617    8.5535   -5.1264 H         1 <0>         0.1442
     37 H8         -0.7498    6.5326   -2.6829 H         1 <0>         0.1356
     38 H9         -0.1576    8.2109   -2.6607 H         1 <0>         0.1386
     39 H10         0.7292    6.9120   -0.7355 H         1 <0>         0.1151
     40 H11         2.0385    7.4321   -1.8239 H         1 <0>         0.1048
     41 H12         0.7136    4.6810   -1.7880 H         1 <0>         0.1206
     42 H13         3.0237    5.7662   -3.4646 H         1 <0>         0.1013
     43 H14         2.3911    4.1021   -3.5016 H         1 <0>         0.1138
     44 H15         0.1878    4.9496   -4.2426 H         1 <0>         0.1335
     45 H16         1.4686    5.4654   -5.3657 H         1 <0>         0.1359
     46 H17         3.3261    2.8460    1.6295 H         1 <0>         0.1928
     47 H18         2.1161    1.2527   -0.0111 H         1 <0>         0.1383
     48 H19         0.0021   -0.0041    0.0020 H         1 <0>         0.1460
     49 H20        -2.1466    1.1938    0.0187 H         1 <0>         0.1455
     50 H21        -0.0829    4.9292    0.0290 H         1 <0>         0.1368
     51 N3          0.7331    6.9980   -4.1286 N.4       1 <0>        -0.3972
     52 H22         1.5924    7.5576   -4.1798 H         1 <0>         0.4315
@<TRIPOS>BOND
     1    1    2 1
     2    1   30 1
     3    1   31 1
     4    1   32 1
     5    2    6 1
     6    2    3 2
     7    3    4 1
     8    3   33 1
     9    4    5 2
    10    4   34 1
    11    5    6 1
    12    5    7 1
    13    7   35 1
    14    7   36 1
    15    7   51 1
    16    8    9 1
    17    8   37 1
    18    8   38 1
    19    8   51 1
    20    9   10 1
    21    9   39 1
    22    9   40 1
    23   10   11 1
    24   10   13 1
    25   10   41 1
    26   11   12 1
    27   11   42 1
    28   11   43 1
    29   12   44 1
    30   12   45 1
    31   12   51 1
    32   13   18 ar
    33   13   14 ar
    34   14   15 ar
    35   14   23 1
    36   15   16 ar
    37   15   46 1
    38   16   17 ar
    39   17   18 ar
    40   17   19 1
    41   19   20 1
    42   19   21 1
    43   19   22 1
    44   23   28 ar
    45   23   24 ar
    46   24   25 ar
    47   24   47 1
    48   25   26 ar
    49   25   48 1
    50   26   27 ar
    51   26   49 1
    52   27   28 ar
    53   27   29 1
    54   28   50 1
    55   51   52 1
@<TRIPOS>MOLECULE
ZINC35790914
   57    60     0     0     0
SMALL
USER_CHARGES

@<TRIPOS>ATOM
      1 C1          0.6745    1.4585   -1.5334 C.3       1 <0>        -0.1310
      2 C2          0.5602   -0.0143   -1.2352 C.ar      1 <0>        -0.0445
      3 C3          0.5359   -0.9294   -2.2710 C.ar      1 <0>        -0.1154
      4 C4          0.4310   -2.2804   -1.9975 C.ar      1 <0>        -0.0880
      5 C5          0.3509   -2.7162   -0.6881 C.ar      1 <0>        -0.1648
      6 C6          0.3762   -1.8012    0.3478 C.ar      1 <0>        -0.0933
      7 C7          0.4853   -0.4506    0.0744 C.ar      1 <0>        -0.1161
      8 C8          0.2356   -4.1889   -0.3899 C.3       1 <0>         0.0274
      9 N1          1.5787   -4.7650   -0.2411 N.4       1 <0>        -0.3851
     10 C9          2.2472   -4.1489    0.9074 C.3       1 <0>        -0.0189
     11 C10         3.6711   -4.6700    1.0571 C.3       1 <0>        -0.1595
     12 C11         4.2661   -4.9548   -0.3249 C.3       1 <0>         0.0838
     13 N2          3.9326   -6.3301   -0.7130 N.pl3     1 <0>        -0.4566
     14 C12         4.7857   -7.2505   -1.2416 C.2       1 <0>         0.0310
     15 C13         4.0913   -8.3829   -1.4767 C.2       1 <0>        -0.1943
     16 C14         2.7608   -8.1539   -1.0727 C.2       1 <0>        -0.1131
     17 C15         2.6930   -6.8930   -0.6031 C.2       1 <0>        -0.0597
     18 C16         1.4671   -6.2162   -0.0398 C.3       1 <0>         0.1738
     19 H1          1.3902   -6.4310    1.0260 H         1 <0>         0.1515
     20 C17         0.2393   -6.7293   -0.7472 C.ar      1 <0>        -0.1155
     21 C18         0.0622   -6.4776   -2.0954 C.ar      1 <0>        -0.1372
     22 C19        -1.0626   -6.9467   -2.7472 C.ar      1 <0>        -0.0676
     23 C20        -2.0162   -7.6694   -2.0539 C.ar      1 <0>        -0.1718
     24 C21        -1.8450   -7.9250   -0.7033 C.ar      1 <0>         0.1269
     25 C22        -0.7091   -7.4579   -0.0482 C.ar      1 <0>         0.0957
     26 O1         -0.5337   -7.7110    1.2764 O.3       1 <0>        -0.3177
     27 C23        -1.0656   -6.7549    2.1956 C.3       1 <0>         0.0287
     28 O2         -2.7819   -8.6356   -0.0200 O.3       1 <0>        -0.2990
     29 C24        -3.9186   -9.0882   -0.7582 C.3       1 <0>         0.0194
     30 H2          1.7266    1.7410   -1.5709 H         1 <0>         0.0823
     31 H3          0.2065    1.6720   -2.4944 H         1 <0>         0.0764
     32 H4          0.1731    2.0277   -0.7506 H         1 <0>         0.0763
     33 H5          0.5985   -0.5889   -3.2940 H         1 <0>         0.1360
     34 H6          0.4113   -2.9952   -2.8068 H         1 <0>         0.1300
     35 H7          0.3132   -2.1417    1.3707 H         1 <0>         0.1305
     36 H8          0.5088    0.2641    0.8838 H         1 <0>         0.1361
     37 H9         -0.3246   -4.3297    0.5344 H         1 <0>         0.1317
     38 H10        -0.2841   -4.6859   -1.2091 H         1 <0>         0.1500
     39 H11         2.2747   -3.0682    0.7678 H         1 <0>         0.1394
     40 H12         1.6856   -4.3774    1.8132 H         1 <0>         0.1339
     41 H13         4.2791   -3.9224    1.5664 H         1 <0>         0.1297
     42 H14         3.6610   -5.5887    1.6437 H         1 <0>         0.1053
     43 H15         3.8485   -4.2589   -1.0525 H         1 <0>         0.0813
     44 H16         5.3493   -4.8389   -0.2868 H         1 <0>         0.1251
     45 H17         5.8368   -7.0998   -1.4391 H         1 <0>         0.1761
     46 H18         4.4830   -9.2970   -1.8979 H         1 <0>         0.1502
     47 H19         1.9451   -8.8595   -1.1295 H         1 <0>         0.1447
     48 H20         0.8044   -5.9130   -2.6401 H         1 <0>         0.1298
     49 H21        -1.1973   -6.7481   -3.8002 H         1 <0>         0.1437
     50 H22        -2.8947   -8.0342   -2.5654 H         1 <0>         0.1469
     51 H23        -0.8572   -7.0768    3.2159 H         1 <0>         0.1073
     52 H24        -0.6020   -5.7843    2.0190 H         1 <0>         0.0324
     53 H25        -2.1432   -6.6742    2.0530 H         1 <0>         0.0604
     54 H26        -4.4472   -8.2303   -1.1737 H         1 <0>         0.0618
     55 H27        -3.5900   -9.7396   -1.5681 H         1 <0>         0.0639
     56 H28        -4.5857   -9.6401   -0.0959 H         1 <0>         0.1116
     57 H29         2.1154   -4.5832   -1.0759 H         1 <0>         0.4179
@<TRIPOS>BOND
     1    1    2 1
     2    1   30 1
     3    1   31 1
     4    1   32 1
     5    2    7 ar
     6    2    3 ar
     7    3    4 ar
     8    3   33 1
     9    4    5 ar
    10    4   34 1
    11    5    6 ar
    12    5    8 1
    13    6    7 ar
    14    6   35 1
    15    7   36 1
    16    8    9 1
    17    8   37 1
    18    8   38 1
    19    9   18 1
    20    9   10 1
    21    9   57 1
    22   10   11 1
    23   10   39 1
    24   10   40 1
    25   11   12 1
    26   11   41 1
    27   11   42 1
    28   12   13 1
    29   12   43 1
    30   12   44 1
    31   13   17 1
    32   13   14 1
    33   14   15 2
    34   14   45 1
    35   15   16 1
    36   15   46 1
    37   16   17 2
    38   16   47 1
    39   17   18 1
    40   18   19 1
    41   18   20 1
    42   20   25 ar
    43   20   21 ar
    44   21   22 ar
    45   21   48 1
    46   22   23 ar
    47   22   49 1
    48   23   24 ar
    49   23   50 1
    50   24   25 ar
    51   24   28 1
    52   25   26 1
    53   26   27 1
    54   27   51 1
    55   27   52 1
    56   27   53 1
    57   28   29 1
    58   29   54 1
    59   29   55 1
    60   29   56 1
@<TRIPOS>MOLECULE
ZINC39835121
   54    57     0     0     0
SMALL
USER_CHARGES

@<TRIPOS>ATOM
      1 C1          0.1933    1.4703   -0.0979 C.3       1 <0>        -0.1272
      2 C2          0.0617   -0.0305   -0.0626 C.ar      1 <0>        -0.0633
      3 C3          0.9099   -0.7789    0.7329 C.ar      1 <0>        -0.0842
      4 C4          0.7920   -2.1544    0.7676 C.ar      1 <0>        -0.1378
      5 C5         -0.1803   -2.7862    0.0025 C.ar      1 <0>         0.0941
      6 C6         -1.0310   -2.0313   -0.7952 C.ar      1 <0>        -0.1081
      7 C7         -0.9108   -0.6558   -0.8215 C.ar      1 <0>        -0.0870
      8 N1         -0.3021   -4.1780    0.0348 N.pl3     1 <0>        -0.5687
      9 C8         -0.0170   -4.8719    1.2007 C.cat     1 <0>         0.3601
     10 N2          0.0264   -6.1756    1.4080 N.pl3     1 <0>        -0.4153
     11 C9          0.3203   -6.6722    2.6011 C.2       1 <0>         0.1246
     12 C10         0.5833   -5.8201    3.6361 C.2       1 <0>        -0.1831
     13 S1          0.3973   -4.2399    2.8205 S.3       1 <0>         0.2591
     14 C11         0.3628   -8.1401    2.8109 C.ar      1 <0>        -0.1183
     15 C12         0.9245   -8.9683    1.8406 C.ar      1 <0>        -0.0729
     16 C13         0.9629  -10.3328    2.0389 C.ar      1 <0>        -0.1441
     17 C14         0.4430  -10.8813    3.2032 C.ar      1 <0>         0.1668
     18 C15        -0.1175  -10.0593    4.1711 C.ar      1 <0>        -0.2029
     19 C16        -0.1537   -8.6935    3.9814 C.ar      1 <0>        -0.0322
     20 O1          0.4823  -12.2262    3.3956 O.3       1 <0>        -0.3062
     21 C17        -0.0704  -12.7233    4.6160 C.3       1 <0>         0.0202
     22 C18        -0.2560   -7.0897    0.2986 C.3       1 <0>         0.0533
     23 C19         0.7545   -6.8545   -0.8259 C.3       1 <0>        -0.1401
     24 C20         0.4596   -7.8091   -1.9846 C.3       1 <0>        -0.1184
     25 C21        -0.9551   -7.5536   -2.5085 C.3       1 <0>        -0.1304
     26 C22        -1.9656   -7.7888   -1.3840 C.3       1 <0>        -0.1180
     27 C23        -1.6706   -6.8341   -0.2253 C.3       1 <0>        -0.1334
     28 H1         -0.4355    1.9085    0.6772 H         1 <0>         0.0826
     29 H2          1.2326    1.7481    0.0773 H         1 <0>         0.0762
     30 H3         -0.1220    1.8399   -1.0736 H         1 <0>         0.0765
     31 H4          1.6655   -0.2872    1.3275 H         1 <0>         0.1429
     32 H5          1.4552   -2.7384    1.3886 H         1 <0>         0.1299
     33 H6         -1.7877   -2.5193   -1.3916 H         1 <0>         0.1379
     34 H7         -1.5742   -0.0680   -1.4386 H         1 <0>         0.1438
     35 H8          0.8374   -6.0403    4.6624 H         1 <0>         0.2354
     36 H9          1.3289   -8.5422    0.9343 H         1 <0>         0.1391
     37 H10         1.3976  -10.9751    1.2873 H         1 <0>         0.1466
     38 H11        -0.5215  -10.4891    5.0758 H         1 <0>         0.1454
     39 H12        -0.5856   -8.0541    4.7370 H         1 <0>         0.1397
     40 H13         0.0250  -13.8088    4.6424 H         1 <0>         0.1111
     41 H14         0.4659  -12.2908    5.4606 H         1 <0>         0.0635
     42 H15        -1.1238  -12.4496    4.6758 H         1 <0>         0.0627
     43 H16        -0.1782   -8.1194    0.6474 H         1 <0>         0.1600
     44 H17         0.6767   -5.8247   -1.1748 H         1 <0>         0.0701
     45 H18         1.7623   -7.0365   -0.4527 H         1 <0>         0.0871
     46 H19         1.1795   -7.6415   -2.7857 H         1 <0>         0.0862
     47 H20         0.5373   -8.8389   -1.6357 H         1 <0>         0.0783
     48 H21        -1.0328   -6.5238   -2.8573 H         1 <0>         0.0656
     49 H22        -1.1652   -8.2337   -3.3339 H         1 <0>         0.0835
     50 H23        -2.9734   -7.6068   -1.7572 H         1 <0>         0.0852
     51 H24        -1.8878   -8.8185   -1.0351 H         1 <0>         0.0784
     52 H25        -2.3905   -7.0017    0.5758 H         1 <0>         0.0872
     53 H26        -1.7484   -5.8044   -0.5742 H         1 <0>         0.0633
     54 H27        -0.5861   -4.6586   -0.7584 H         1 <0>         0.4352
@<TRIPOS>BOND
     1    1    2 1
     2    1   28 1
     3    1   29 1
     4    1   30 1
     5    2    7 ar
     6    2    3 ar
     7    3    4 ar
     8    3   31 1
     9    4    5 ar
    10    4   32 1
    11    5    6 ar
    12    5    8 1
    13    6    7 ar
    14    6   33 1
    15    7   34 1
    16    8    9 1
    17    8   54 1
    18    9   13 1
    19    9   10 2
    20   10   11 1
    21   10   22 1
    22   11   12 2
    23   11   14 1
    24   12   13 1
    25   12   35 1
    26   14   19 ar
    27   14   15 ar
    28   15   16 ar
    29   15   36 1
    30   16   17 ar
    31   16   37 1
    32   17   18 ar
    33   17   20 1
    34   18   19 ar
    35   18   38 1
    36   19   39 1
    37   20   21 1
    38   21   40 1
    39   21   41 1
    40   21   42 1
    41   22   27 1
    42   22   23 1
    43   22   43 1
    44   23   24 1
    45   23   44 1
    46   23   45 1
    47   24   25 1
    48   24   46 1
    49   24   47 1
    50   25   26 1
    51   25   48 1
    52   25   49 1
    53   26   27 1
    54   26   50 1
    55   26   51 1
    56   27   52 1
    57   27   53 1
@<TRIPOS>MOLECULE
ZINC38936221
   36    38     0     0     0
SMALL
USER_CHARGES

@<TRIPOS>ATOM
      1 C1          1.5274   -1.2965    3.9265 C.ar      1 <0>        -0.0926
      2 C2          1.6904   -0.1713    3.1374 C.ar      1 <0>        -0.0656
      3 C3          2.0591   -0.2966    1.8098 C.ar      1 <0>        -0.0769
      4 C4          2.2674   -1.5459    1.2633 C.ar      1 <0>        -0.1314
      5 C5          2.1053   -2.6862    2.0539 C.ar      1 <0>        -0.0597
      6 C6          1.7323   -2.5519    3.3939 C.ar      1 <0>        -0.0541
      7 C7          2.3262   -4.0249    1.4771 C.2       1 <0>         0.2223
      8 N1          2.7676   -4.1435    0.2617 N.2       1 <0>        -0.2153
      9 N2          2.8718   -5.4114   -0.3252 N.pl3     1 <0>        -0.3748
     10 C8          4.0723   -6.0416   -0.9054 C.3       1 <0>         0.2491
     11 H1          4.4447   -5.4547   -1.7449 H         1 <0>         0.2367
     12 N3          3.5936   -7.3543   -1.3651 N.2       1 <0>         0.0515
     13 N4          2.3916   -7.4386   -1.1002 N.pl3     1 <0>        -0.1466
     14 C9          1.8963   -6.3333   -0.4813 C.2       1 <0>         0.2789
     15 S1          0.2721   -6.1371    0.0231 S.2       1 <0>        -0.1975
     16 C10         5.1437   -6.2030    0.1421 C.ar      1 <0>        -0.1310
     17 C11         5.3221   -5.2263    1.1040 C.ar      1 <0>        -0.0788
     18 C12         6.3046   -5.3737    2.0649 C.ar      1 <0>        -0.0961
     19 C13         7.1095   -6.4990    2.0640 C.ar      1 <0>        -0.0011
     20 C14         6.9304   -7.4761    1.1010 C.ar      1 <0>        -0.0969
     21 C15         5.9439   -7.3302    0.1440 C.ar      1 <0>        -0.0735
     22 Cl1         8.3441   -6.6845    3.2702 Cl        1 <0>        -0.0277
     23 C16         2.6685   -1.6804   -0.1831 C.3       1 <0>         0.5114
     24 F1          2.7129   -0.4133   -0.7744 F         1 <0>        -0.1699
     25 F2          3.9314   -2.2770   -0.2633 F         1 <0>        -0.1673
     26 F3          1.7335   -2.4757   -0.8543 F         1 <0>        -0.1659
     27 H2          1.2435   -1.1910    4.9632 H         1 <0>         0.1519
     28 H3          1.5286    0.8094    3.5600 H         1 <0>         0.1516
     29 H4          2.1837    0.5858    1.1998 H         1 <0>         0.1535
     30 H5          1.6052   -3.4291    4.0109 H         1 <0>         0.1507
     31 H6          2.1209   -4.9070    2.0655 H         1 <0>         0.1606
     32 H7          4.6939   -4.3478    1.1045 H         1 <0>         0.1428
     33 H8          6.4441   -4.6104    2.8162 H         1 <0>         0.1541
     34 H9          7.5587   -8.3545    1.0995 H         1 <0>         0.1564
     35 H10         5.8009   -8.0951   -0.6049 H         1 <0>         0.1502
     36 H11         1.8535   -8.2181   -1.3094 H         1 <0>         0.5011
@<TRIPOS>BOND
     1    1    6 ar
     2    1    2 ar
     3    1   27 1
     4    2    3 ar
     5    2   28 1
     6    3    4 ar
     7    3   29 1
     8    4    5 ar
     9    4   23 1
    10    5    6 ar
    11    5    7 1
    12    6   30 1
    13    7    8 2
    14    7   31 1
    15    8    9 1
    16    9   14 1
    17    9   10 1
    18   10   11 1
    19   10   12 1
    20   10   16 1
    21   12   13 2
    22   13   14 1
    23   13   36 1
    24   14   15 2
    25   16   21 ar
    26   16   17 ar
    27   17   18 ar
    28   17   32 1
    29   18   19 ar
    30   18   33 1
    31   19   20 ar
    32   19   22 1
    33   20   21 ar
    34   20   34 1
    35   21   35 1
    36   23   24 1
    37   23   25 1
    38   23   26 1
@<TRIPOS>MOLECULE
ZINC01183524
   41    43     0     0     0
SMALL
USER_CHARGES
3-ethyl-5-[[4-[(4-iodophenyl)methoxy]phenyl]methylene]thiazolidine-2,4-dione
@<TRIPOS>ATOM
      1 C1         -5.1188    2.5574    1.8159 C.3       1 <0>        -0.1675
      2 C2         -4.7208    2.6019    0.3392 C.3       1 <0>         0.0872
      3 N1         -3.2710    2.7807    0.2294 N.am      1 <0>        -0.5778
      4 C3         -2.4899    1.7146    0.1846 C.2       1 <0>         0.5593
      5 O1         -2.9444    0.5866    0.2331 O.2       1 <0>        -0.4706
      6 C4         -1.0386    1.9618    0.0733 C.2       1 <0>        -0.2253
      7 C5         -0.0126    1.0758    0.0080 C.2       1 <0>         0.0862
      8 C6          1.3451    1.5457   -0.2957 C.ar      1 <0>        -0.1390
      9 C7          1.5562    2.8692   -0.7020 C.ar      1 <0>        -0.0423
     10 C8          2.8320    3.3062   -0.9789 C.ar      1 <0>        -0.2104
     11 C9          3.9079    2.4329   -0.8684 C.ar      1 <0>         0.1617
     12 C10         3.7034    1.1164   -0.4715 C.ar      1 <0>        -0.1550
     13 C11         2.4327    0.6705   -0.1857 C.ar      1 <0>        -0.0338
     14 O2          5.1632    2.8675   -1.1487 O.3       1 <0>        -0.3013
     15 C12         5.3028    4.2317   -1.5508 C.3       1 <0>         0.0966
     16 C13         6.7556    4.5306   -1.8177 C.ar      1 <0>        -0.0815
     17 C14         7.5642    4.9956   -0.7974 C.ar      1 <0>        -0.0890
     18 C15         8.8980    5.2644   -1.0405 C.ar      1 <0>        -0.0876
     19 C16         9.4210    5.0786   -2.3072 C.ar      1 <0>        -0.0891
     20 C17         8.6105    4.6188   -3.3290 C.ar      1 <0>        -0.0877
     21 C18         7.2780    4.3451   -3.0841 C.ar      1 <0>        -0.0891
     22 I1         11.4410    5.4928   -2.6778 I         1 <0>        -0.0358
     23 S1         -1.0037    3.7490    0.0561 S.3       1 <0>        -0.0472
     24 C19        -2.7631    4.0289    0.1758 C.2       1 <0>         0.5322
     25 O3         -3.3590    5.0889    0.2072 O.2       1 <0>        -0.4188
     26 H1         -4.6120    1.7249    2.3038 H         1 <0>         0.0636
     27 H2         -4.8304    3.4914    2.2982 H         1 <0>         0.0613
     28 H3         -6.1976    2.4243    1.8976 H         1 <0>         0.0809
     29 H4         -5.2276    3.4344   -0.1488 H         1 <0>         0.0980
     30 H5         -5.0093    1.6679   -0.1431 H         1 <0>         0.1019
     31 H6         -0.1954    0.0246    0.1749 H         1 <0>         0.1637
     32 H7          0.7204    3.5470   -0.7931 H         1 <0>         0.1386
     33 H8          2.9966    4.3281   -1.2870 H         1 <0>         0.1376
     34 H9          4.5429    0.4423   -0.3870 H         1 <0>         0.1412
     35 H10         2.2750   -0.3523    0.1233 H         1 <0>         0.1432
     36 H11         4.7238    4.4041   -2.4581 H         1 <0>         0.0794
     37 H12         4.9375    4.8836   -0.7573 H         1 <0>         0.0796
     38 H13         7.1547    5.1446    0.1908 H         1 <0>         0.1345
     39 H14         9.5309    5.6232   -0.2422 H         1 <0>         0.1340
     40 H15         9.0188    4.4732   -4.3182 H         1 <0>         0.1339
     41 H16         6.6449    3.9860   -3.8820 H         1 <0>         0.1344
@<TRIPOS>BOND
     1    1    2 1
     2    1   26 1
     3    1   27 1
     4    1   28 1
     5    2    3 1
     6    2   29 1
     7    2   30 1
     8    3   24 am
     9    3    4 am
    10    4    5 2
    11    4    6 1
    12    6    7 2
    13    6   23 1
    14    7    8 1
    15    7   31 1
    16    8   13 ar
    17    8    9 ar
    18    9   10 ar
    19    9   32 1
    20   10   11 ar
    21   10   33 1
    22   11   12 ar
    23   11   14 1
    24   12   13 ar
    25   12   34 1
    26   13   35 1
    27   14   15 1
    28   15   16 1
    29   15   36 1
    30   15   37 1
    31   16   21 ar
    32   16   17 ar
    33   17   18 ar
    34   17   38 1
    35   18   19 ar
    36   18   39 1
    37   19   20 ar
    38   19   22 1
    39   20   21 ar
    40   20   40 1
    41   21   41 1
    42   23   24 1
    43   24   25 2
@<TRIPOS>MOLECULE
ZINC09277388
   41    43     0     0     0
SMALL
USER_CHARGES
1-[2-[(4-bromophenyl)methylsulfanyl]-4,5-dihydroimidazol-1-yl]-2-(4-chlorophenoxy)-ethanone
@<TRIPOS>ATOM
      1 C1         -0.7622    7.5827   -1.1472 C.ar      1 <0>        -0.0927
      2 C2         -1.6994    8.5986   -1.1338 C.ar      1 <0>        -0.0893
      3 C3         -2.1562    9.1019    0.0709 C.ar      1 <0>        -0.0813
      4 C4         -1.6787    8.5848    1.2617 C.ar      1 <0>        -0.0893
      5 C5         -0.7455    7.5653    1.2473 C.ar      1 <0>        -0.0928
      6 C6         -0.2893    7.0626    0.0431 C.ar      1 <0>        -0.0723
      7 C7          0.7286    5.9514    0.0279 C.3       1 <0>        -0.0701
      8 S1         -0.1221    4.3538    0.0263 S.3       1 <0>        -0.0160
      9 C8          1.2656    3.2682    0.0080 C.2       1 <0>         0.3230
     10 N1          2.4875    3.6894   -0.0008 N.2       1 <0>        -0.5144
     11 C9          3.4158    2.5508   -0.0157 C.3       1 <0>         0.0224
     12 C10         2.4953    1.3144   -0.0088 C.3       1 <0>         0.0757
     13 N2          1.1435    1.8980    0.0013 N.am      1 <0>        -0.5670
     14 C11        -0.0144    1.2083    0.0087 C.2       1 <0>         0.5351
     15 O1          0.0021   -0.0041    0.0020 O.2       1 <0>        -0.4736
     16 C12        -1.3296    1.9440    0.0189 C.3       1 <0>         0.0323
     17 O2         -2.4030    1.0007    0.0189 O.3       1 <0>        -0.2825
     18 C13        -3.6659    1.5031    0.0276 C.ar      1 <0>         0.1309
     19 C14        -3.8673    2.8756    0.0418 C.ar      1 <0>        -0.1958
     20 C15        -5.1517    3.3843    0.0458 C.ar      1 <0>        -0.0662
     21 C16        -6.2368    2.5258    0.0463 C.ar      1 <0>        -0.0698
     22 C17        -6.0379    1.1566    0.0375 C.ar      1 <0>        -0.0683
     23 C18        -4.7551    0.6440    0.0281 C.ar      1 <0>        -0.1317
     24 Cl1        -7.8498    3.1675    0.0575 Cl        1 <0>        -0.0665
     25 Br1        -3.4335   10.4963    0.0900 Br        1 <0>        -0.0430
     26 H1         -0.4024    7.1925   -2.0878 H         1 <0>         0.1368
     27 H2         -2.0722    9.0018   -2.0637 H         1 <0>         0.1377
     28 H3         -2.0354    8.9772    2.2026 H         1 <0>         0.1377
     29 H4         -0.3729    7.1612    2.1770 H         1 <0>         0.1368
     30 H5          1.3607    6.0256    0.9128 H         1 <0>         0.1127
     31 H6          1.3451    6.0356   -0.8671 H         1 <0>         0.1127
     32 H7          4.0284    2.5696   -0.9171 H         1 <0>         0.1057
     33 H8          4.0447    2.5594    0.8745 H         1 <0>         0.1051
     34 H9          2.6616    0.7143    0.8858 H         1 <0>         0.0962
     35 H10         2.6495    0.7173   -0.9076 H         1 <0>         0.0962
     36 H11        -1.3916    2.5650    0.9126 H         1 <0>         0.1115
     37 H12        -1.4000    2.5747   -0.8673 H         1 <0>         0.1116
     38 H13        -3.0206    3.5460    0.0456 H         1 <0>         0.1366
     39 H14        -5.3089    4.4528    0.0528 H         1 <0>         0.1385
     40 H15        -6.8862    0.4880    0.0375 H         1 <0>         0.1434
     41 H16        -4.6003   -0.4248    0.0208 H         1 <0>         0.1442
@<TRIPOS>BOND
     1    1    6 ar
     2    1    2 ar
     3    1   26 1
     4    2    3 ar
     5    2   27 1
     6    3    4 ar
     7    3   25 1
     8    4    5 ar
     9    4   28 1
    10    5    6 ar
    11    5   29 1
    12    6    7 1
    13    7    8 1
    14    7   30 1
    15    7   31 1
    16    8    9 1
    17    9   13 1
    18    9   10 2
    19   10   11 1
    20   11   12 1
    21   11   32 1
    22   11   33 1
    23   12   13 1
    24   12   34 1
    25   12   35 1
    26   13   14 am
    27   14   15 2
    28   14   16 1
    29   16   17 1
    30   16   36 1
    31   16   37 1
    32   17   18 1
    33   18   23 ar
    34   18   19 ar
    35   19   20 ar
    36   19   38 1
    37   20   21 ar
    38   20   39 1
    39   21   22 ar
    40   21   24 1
    41   22   23 ar
    42   22   40 1
    43   23   41 1
@<TRIPOS>MOLECULE
ZINC10145495
   45    48     0     0     0
SMALL
USER_CHARGES
2-[(2-bromophenyl)methylsulfanyl]-3-(tetrahydrofuran-2-ylmethyl)quinazolin-4-one
@<TRIPOS>ATOM
      1 C1          4.3324    6.8340    1.6968 C.ar      1 <0>        -0.1026
      2 C2          4.0113    7.8371    0.8010 C.ar      1 <0>        -0.1037
      3 C3          2.7163    7.9582    0.3340 C.ar      1 <0>        -0.0901
      4 C4          1.7412    7.0753    0.7626 C.ar      1 <0>        -0.0763
      5 C5          2.0629    6.0718    1.6583 C.ar      1 <0>        -0.0600
      6 C6          3.3574    5.9547    2.1290 C.ar      1 <0>        -0.0932
      7 C7          1.0011    5.1101    2.1259 C.3       1 <0>        -0.0732
      8 S1          0.9468    3.6836    1.0132 S.3       1 <0>         0.0046
      9 C8         -0.3408    2.7515    1.7733 C.2       1 <0>         0.3709
     10 N1         -0.9143    3.2380    2.8462 N.2       1 <0>        -0.5306
     11 C9         -1.9014    2.5755    3.4820 C.ar      1 <0>         0.1678
     12 C10        -2.5096    3.0920    4.6301 C.ar      1 <0>        -0.1136
     13 C11        -3.5069    2.3869    5.2424 C.ar      1 <0>        -0.0710
     14 C12        -3.9273    1.1614    4.7416 C.ar      1 <0>        -0.1410
     15 C13        -3.3525    0.6305    3.6200 C.ar      1 <0>        -0.0383
     16 C14        -2.3322    1.3282    2.9751 C.ar      1 <0>        -0.1983
     17 C15        -1.6781    0.8067    1.7674 C.2       1 <0>         0.5581
     18 O1         -2.0053   -0.2611    1.2831 O.2       1 <0>        -0.4882
     19 N2         -0.6984    1.5583    1.2133 N.am      1 <0>        -0.5235
     20 C16        -0.0127    1.0858    0.0080 C.3       1 <0>         0.0914
     21 C17        -0.7527    1.5927   -1.2315 C.3       1 <0>         0.0636
     22 H1         -0.7655    2.6825   -1.2445 H         1 <0>         0.0813
     23 C18        -0.0848    1.0452   -2.5180 C.3       1 <0>        -0.1470
     24 C19        -1.2741    1.1029   -3.5151 C.3       1 <0>        -0.1537
     25 C20        -2.4803    0.7866   -2.6049 C.3       1 <0>         0.0503
     26 O2         -2.0936    1.0780   -1.2569 O.3       1 <0>        -0.3659
     27 Br1        -0.0311    7.2409    0.1243 Br        1 <0>        -0.0368
     28 H2          5.3444    6.7399    2.0619 H         1 <0>         0.1345
     29 H3          4.7726    8.5262    0.4665 H         1 <0>         0.1355
     30 H4          2.4654    8.7422   -0.3652 H         1 <0>         0.1370
     31 H5          3.6078    5.1738    2.8318 H         1 <0>         0.1366
     32 H6          0.0322    5.6096    2.1240 H         1 <0>         0.1199
     33 H7          1.2346    4.7742    3.1362 H         1 <0>         0.1161
     34 H8         -2.1929    4.0437    5.0306 H         1 <0>         0.1380
     35 H9         -3.9750    2.7882    6.1291 H         1 <0>         0.1337
     36 H10        -4.7173    0.6222    5.2431 H         1 <0>         0.1327
     37 H11        -3.6857   -0.3229    3.2372 H         1 <0>         0.1369
     38 H12         0.0021   -0.0041    0.0020 H         1 <0>         0.1118
     39 H13         1.0099    1.4631    0.0003 H         1 <0>         0.1089
     40 H14         0.7314    1.6908   -2.8422 H         1 <0>         0.0900
     41 H15         0.2597    0.0208   -2.3763 H         1 <0>         0.0843
     42 H16        -1.1657    0.3464   -4.2923 H         1 <0>         0.0854
     43 H17        -1.3689    2.0963   -3.9535 H         1 <0>         0.0788
     44 H18        -2.7447   -0.2671   -2.6942 H         1 <0>         0.0710
     45 H19        -3.3301    1.4076   -2.8882 H         1 <0>         0.0677
@<TRIPOS>BOND
     1    1    6 ar
     2    1    2 ar
     3    1   28 1
     4    2    3 ar
     5    2   29 1
     6    3    4 ar
     7    3   30 1
     8    4    5 ar
     9    4   27 1
    10    5    6 ar
    11    5    7 1
    12    6   31 1
    13    7    8 1
    14    7   32 1
    15    7   33 1
    16    8    9 1
    17    9   19 1
    18    9   10 2
    19   10   11 1
    20   11   16 ar
    21   11   12 ar
    22   12   13 ar
    23   12   34 1
    24   13   14 ar
    25   13   35 1
    26   14   15 ar
    27   14   36 1
    28   15   16 ar
    29   15   37 1
    30   16   17 1
    31   17   18 2
    32   17   19 am
    33   19   20 1
    34   20   21 1
    35   20   38 1
    36   20   39 1
    37   21   22 1
    38   21   26 1
    39   21   23 1
    40   23   24 1
    41   23   40 1
    42   23   41 1
    43   24   25 1
    44   24   42 1
    45   24   43 1
    46   25   26 1
    47   25   44 1
    48   25   45 1
@<TRIPOS>MOLECULE
ZINC14985718
   53    56     0     0     0
SMALL
USER_CHARGES
(3R)-3-(5-benzylsulfanyl-4-methyl-1,2,4-triazol-3-yl)-1-[(2-chloro-6-fluoro-phenyl)methyl]piperidine
@<TRIPOS>ATOM
      1 C1         -0.6300   -2.4370   -3.3811 C.3       1 <0>         0.0636
      2 N1          0.1418   -2.8324   -2.2003 N.pl3     1 <0>        -0.4615
      3 C2          0.7183   -2.0058   -1.2759 C.2       1 <0>         0.1901
      4 N2          1.3025   -2.7622   -0.3901 N.2       1 <0>        -0.2767
      5 N3          1.1399   -4.0009   -0.6916 N.2       1 <0>        -0.2902
      6 C3          0.4371   -4.1026   -1.7958 C.2       1 <0>         0.1509
      7 S1         -0.0403   -5.5959   -2.6000 S.3       1 <0>         0.0077
      8 C4          0.7048   -6.8077   -1.4810 C.3       1 <0>        -0.0611
      9 C5          0.4176   -8.1990   -1.9838 C.ar      1 <0>        -0.0849
     10 C6         -0.7197   -8.8641   -1.5653 C.ar      1 <0>        -0.0987
     11 C7         -0.9855  -10.1386   -2.0299 C.ar      1 <0>        -0.1196
     12 C8         -0.1092  -10.7516   -2.9059 C.ar      1 <0>        -0.1099
     13 C9          1.0307  -10.0885   -3.3203 C.ar      1 <0>        -0.1196
     14 C10         1.2943   -8.8124   -2.8591 C.ar      1 <0>        -0.0987
     15 C11         0.6797   -0.4993   -1.2777 C.3       1 <0>         0.0097
     16 H1          0.1106   -0.1657   -2.1580 H         1 <0>         0.0961
     17 C12         2.1079    0.0494   -1.3384 C.3       1 <0>        -0.1105
     18 C13         2.0615    1.5788   -1.2797 C.3       1 <0>        -0.1131
     19 C14         1.3439    2.0138    0.0000 C.3       1 <0>         0.0438
     20 N4         -0.0178    1.4642    0.0101 N.3       1 <0>        -0.5232
     21 C15         0.0021   -0.0041    0.0020 C.3       1 <0>         0.0679
     22 C16        -0.7829    1.9741    1.1559 C.3       1 <0>         0.0902
     23 C17        -0.5795    3.4626    1.2733 C.ar      1 <0>        -0.1130
     24 C18         0.4558    3.9615    2.0456 C.ar      1 <0>         0.1168
     25 C19         0.6454    5.3291    2.1477 C.ar      1 <0>        -0.1505
     26 C20        -0.2059    6.1960    1.4885 C.ar      1 <0>        -0.0753
     27 C21        -1.2430    5.6982    0.7226 C.ar      1 <0>        -0.1219
     28 C22        -1.4302    4.3313    0.6145 C.ar      1 <0>         0.0086
     29 Cl1        -2.7326    3.7071   -0.3487 Cl        1 <0>        -0.0444
     30 F1          1.2840    3.1141    2.6946 F         1 <0>        -0.1289
     31 H2         -0.6907   -1.3397   -3.4289 H         1 <0>         0.1020
     32 H3         -1.6441   -2.8578   -3.3140 H         1 <0>         0.0914
     33 H4         -0.1346   -2.8167   -4.2869 H         1 <0>         0.0909
     34 H5          1.7926   -6.6496   -1.4411 H         1 <0>         0.1080
     35 H6          0.2795   -6.6868   -0.4738 H         1 <0>         0.1079
     36 H7         -1.4024   -8.3866   -0.8780 H         1 <0>         0.1261
     37 H8         -1.8763  -10.6565   -1.7065 H         1 <0>         0.1263
     38 H9         -0.3155  -11.7484   -3.2669 H         1 <0>         0.1250
     39 H10         1.7153  -10.5675   -4.0047 H         1 <0>         0.1263
     40 H11         2.1849   -8.2943   -3.1828 H         1 <0>         0.1262
     41 H12         2.6852   -0.3358   -0.4850 H         1 <0>         0.0765
     42 H13         2.5839   -0.2701   -2.2772 H         1 <0>         0.0674
     43 H14         3.0869    1.9770   -1.2806 H         1 <0>         0.0747
     44 H15         1.5182    1.9631   -2.1556 H         1 <0>         0.0737
     45 H16         1.8960    1.6403    0.8750 H         1 <0>         0.0433
     46 H17         1.2958    3.1121    0.0382 H         1 <0>         0.0766
     47 H18        -1.0293   -0.3846    0.0416 H         1 <0>         0.0780
     48 H19         0.5608   -0.3676    0.8770 H         1 <0>         0.0533
     49 H20        -1.8517    1.7606    1.0073 H         1 <0>         0.0983
     50 H21        -0.4355    1.4828    2.0767 H         1 <0>         0.0542
     51 H22         1.4557    5.7188    2.7460 H         1 <0>         0.1434
     52 H23        -0.0602    7.2629    1.5716 H         1 <0>         0.1444
     53 H24        -1.9076    6.3763    0.2079 H         1 <0>         0.1422
@<TRIPOS>BOND
     1    1    2 1
     2    1   31 1
     3    1   32 1
     4    1   33 1
     5    2    6 1
     6    2    3 1
     7    3    4 2
     8    3   15 1
     9    4    5 1
    10    5    6 2
    11    6    7 1
    12    7    8 1
    13    8    9 1
    14    8   34 1
    15    8   35 1
    16    9   14 ar
    17    9   10 ar
    18   10   11 ar
    19   10   36 1
    20   11   12 ar
    21   11   37 1
    22   12   13 ar
    23   12   38 1
    24   13   14 ar
    25   13   39 1
    26   14   40 1
    27   15   16 1
    28   15   21 1
    29   15   17 1
    30   17   18 1
    31   17   41 1
    32   17   42 1
    33   18   19 1
    34   18   43 1
    35   18   44 1
    36   19   20 1
    37   19   45 1
    38   19   46 1
    39   20   21 1
    40   20   22 1
    41   21   47 1
    42   21   48 1
    43   22   23 1
    44   22   49 1
    45   22   50 1
    46   23   28 ar
    47   23   24 ar
    48   24   25 ar
    49   24   30 1
    50   25   26 ar
    51   25   51 1
    52   26   27 ar
    53   26   52 1
    54   27   28 ar
    55   27   53 1
    56   28   29 1
@<TRIPOS>MOLECULE
ZINC49442766
   58    61     0     0     0
SMALL
USER_CHARGES

@<TRIPOS>ATOM
      1 C1         -1.9256    2.4132    0.9323 C.3       1 <0>        -0.1132
      2 C2         -1.7986    0.9178    0.7955 C.ar      1 <0>        -0.0382
      3 C3         -1.9201    0.3374   -0.4404 C.ar      1 <0>        -0.1044
      4 C4         -1.8100   -1.0347   -0.6108 C.ar      1 <0>        -0.0993
      5 C5         -1.5720   -1.8369    0.4905 C.ar      1 <0>        -0.0338
      6 C6         -1.4486   -1.2645    1.7314 C.ar      1 <0>        -0.1378
      7 C7         -1.5499    0.1296    1.9422 C.ar      1 <0>         0.1080
      8 N1         -1.4004    0.5402    3.2208 N.2       1 <0>        -0.5175
      9 C8         -1.1715   -0.2935    4.2071 C.2       1 <0>         0.3497
     10 S1         -1.1516   -1.8743    3.3735 S.3       1 <0>        -0.0484
     11 O1         -1.0024   -0.0256    5.5228 O.3       1 <0>        -0.2416
     12 C9         -0.7640   -1.1391    6.3861 C.3       1 <0>         0.0878
     13 C10        -2.0996   -1.6778    6.9039 C.3       1 <0>        -0.1600
     14 C11        -1.8423   -2.8925    7.8012 C.3       1 <0>         0.1171
     15 N2         -0.8964   -2.5081    8.8577 N.am      1 <0>        -0.6115
     16 C12         0.3825   -1.8960    8.4723 C.3       1 <0>         0.0936
     17 C13         0.1003   -0.6925    7.5674 C.3       1 <0>        -0.1317
     18 C14        -1.1962   -2.7126   10.1556 C.2       1 <0>         0.5663
     19 O2         -2.2966   -3.1241   10.4677 O.2       1 <0>        -0.5255
     20 C15        -0.1866   -2.4365   11.2001 C.ar      1 <0>        -0.1414
     21 C16        -0.5867   -1.9822   12.4583 C.ar      1 <0>        -0.0380
     22 C17         0.3571   -1.7247   13.4315 C.ar      1 <0>        -0.1290
     23 C18         1.7003   -1.9148   13.1661 C.ar      1 <0>        -0.0461
     24 C19         2.1094   -2.3673   11.9167 C.ar      1 <0>        -0.1237
     25 C20         1.1676   -2.6345   10.9335 C.ar      1 <0>        -0.0523
     26 S2          3.8230   -2.6072   11.5840 S.3       1 <0>        -0.1458
     27 C21         4.0999   -4.3619   11.9512 C.3       1 <0>        -0.0725
     28 C22         3.3544   -5.2209   10.9277 C.3       1 <0>        -0.1501
     29 C23         5.5973   -4.6679   11.8797 C.3       1 <0>        -0.1344
     30 C24        -1.4493   -3.3302    0.3286 C.3       1 <0>        -0.1166
     31 H1         -0.9446    2.8734    0.8143 H         1 <0>         0.0739
     32 H2         -2.5996    2.7924    0.1641 H         1 <0>         0.0692
     33 H3         -2.3245    2.6554    1.9173 H         1 <0>         0.0752
     34 H4         -2.1060    0.9628   -1.3011 H         1 <0>         0.1363
     35 H5         -1.9096   -1.4722   -1.5932 H         1 <0>         0.1400
     36 H6         -0.2463   -1.9230    5.8332 H         1 <0>         0.0853
     37 H7         -2.6067   -0.9023    7.4780 H         1 <0>         0.0887
     38 H8         -2.7239   -1.9740    6.0609 H         1 <0>         0.0880
     39 H9         -2.7797   -3.2194    8.2514 H         1 <0>         0.1072
     40 H10        -1.4178   -3.7020    7.2075 H         1 <0>         0.0774
     41 H11         0.9131   -1.5653    9.3652 H         1 <0>         0.1147
     42 H12         0.9885   -2.6243    7.9333 H         1 <0>         0.0822
     43 H13         1.0418   -0.2874    7.1967 H         1 <0>         0.0967
     44 H14        -0.4275    0.0737    8.1352 H         1 <0>         0.0893
     45 H15        -1.6351   -1.8320   12.6698 H         1 <0>         0.1387
     46 H16         0.0453   -1.3730   14.4039 H         1 <0>         0.1388
     47 H17         2.4343   -1.7108   13.9316 H         1 <0>         0.1384
     48 H18         1.4827   -2.9900    9.9636 H         1 <0>         0.1445
     49 H19         3.7305   -4.5865   12.9518 H         1 <0>         0.0885
     50 H20         3.7773   -5.0546    9.9370 H         1 <0>         0.0688
     51 H21         3.4555   -6.2730   11.1940 H         1 <0>         0.0660
     52 H22         2.2994   -4.9470   10.9231 H         1 <0>         0.0556
     53 H23         6.1283   -4.0560   12.6088 H         1 <0>         0.0669
     54 H24         5.7636   -5.7223   12.1003 H         1 <0>         0.0740
     55 H25         5.9666   -4.4434   10.8790 H         1 <0>         0.0661
     56 H26        -0.4075   -3.5912    0.1429 H         1 <0>         0.0772
     57 H27        -1.7908   -3.8236    1.2386 H         1 <0>         0.0661
     58 H28        -2.0610   -3.6559   -0.5127 H         1 <0>         0.0765
@<TRIPOS>BOND
     1    1    2 1
     2    1   31 1
     3    1   32 1
     4    1   33 1
     5    2    7 ar
     6    2    3 ar
     7    3    4 ar
     8    3   34 1
     9    4    5 ar
    10    4   35 1
    11    5    6 ar
    12    5   30 1
    13    6   10 1
    14    6    7 ar
    15    7    8 1
    16    8    9 2
    17    9   10 1
    18    9   11 1
    19   11   12 1
    20   12   17 1
    21   12   13 1
    22   12   36 1
    23   13   14 1
    24   13   37 1
    25   13   38 1
    26   14   15 1
    27   14   39 1
    28   14   40 1
    29   15   16 1
    30   15   18 am
    31   16   17 1
    32   16   41 1
    33   16   42 1
    34   17   43 1
    35   17   44 1
    36   18   19 2
    37   18   20 1
    38   20   25 ar
    39   20   21 ar
    40   21   22 ar
    41   21   45 1
    42   22   23 ar
    43   22   46 1
    44   23   24 ar
    45   23   47 1
    46   24   25 ar
    47   24   26 1
    48   25   48 1
    49   26   27 1
    50   27   28 1
    51   27   29 1
    52   27   49 1
    53   28   50 1
    54   28   51 1
    55   28   52 1
    56   29   53 1
    57   29   54 1
    58   29   55 1
    59   30   56 1
    60   30   57 1
    61   30   58 1
@<TRIPOS>MOLECULE
ZINC02709390
   57    61     0     0     0
SMALL
USER_CHARGES
1-(1,2-diphenylindol-3-yl)-N-(4-methylpiperazin-1-yl)-methanimine
@<TRIPOS>ATOM
      1 C1          0.7306   -1.9487    1.2285 C.3       1 <0>        -0.0417
      2 C2         -0.0099    0.0030    0.0016 C.3       1 <0>        -0.0207
      3 C3         -0.0209    1.5353    0.0170 C.3       1 <0>         0.1406
      4 N1          1.3701    2.0127   -0.0015 N.pl3     1 <0>        -0.5638
      5 C4          2.3086    1.4604    0.9872 C.3       1 <0>         0.0692
      6 C5          2.2279   -0.0689    0.9336 C.3       1 <0>        -0.0137
      7 N2          1.7899    2.9686   -0.9357 N.2       1 <0>        -0.2331
      8 C6          2.9920    3.4581   -0.8692 C.2       1 <0>         0.1381
      9 C7          3.3973    4.5375   -1.7804 C.2       1 <0>        -0.1323
     10 C8          2.5708    5.1678   -2.8231 C.ar      1 <0>        -0.0728
     11 C9          1.2549    4.9846   -3.2484 C.ar      1 <0>        -0.0672
     12 C10         0.7552    5.7573   -4.2727 C.ar      1 <0>        -0.1370
     13 C11         1.5525    6.7187   -4.8780 C.ar      1 <0>        -0.0940
     14 C12         2.8521    6.9146   -4.4652 C.ar      1 <0>        -0.1198
     15 C13         3.3769    6.1449   -3.4313 C.ar      1 <0>         0.1013
     16 N3          4.6143    6.1161   -2.8190 N.pl3     1 <0>        -0.4194
     17 C14         4.6328    5.1579   -1.8318 C.2       1 <0>         0.1757
     18 C15         5.7852    4.8425   -0.9669 C.ar      1 <0>        -0.0457
     19 C16         7.0615    4.7069   -1.5196 C.ar      1 <0>        -0.0895
     20 C17         8.1352    4.4172   -0.7039 C.ar      1 <0>        -0.1126
     21 C18         7.9491    4.2495    0.6571 C.ar      1 <0>        -0.1032
     22 C19         6.6872    4.3771    1.2108 C.ar      1 <0>        -0.1192
     23 C20         5.6051    4.6723    0.4083 C.ar      1 <0>        -0.0986
     24 C21         5.6935    6.9418   -3.1543 C.ar      1 <0>         0.1094
     25 C22         6.1676    7.8733   -2.2397 C.ar      1 <0>        -0.1032
     26 C23         7.2361    8.6829   -2.5717 C.ar      1 <0>        -0.1039
     27 C24         7.8268    8.5744   -3.8174 C.ar      1 <0>        -0.1044
     28 C25         7.3538    7.6516   -4.7323 C.ar      1 <0>        -0.1047
     29 C26         6.2890    6.8354   -4.4045 C.ar      1 <0>        -0.1117
     30 H1          1.0600   -2.4171    0.3010 H         1 <0>         0.1222
     31 H2          1.3622   -2.2860    2.0503 H         1 <0>         0.1222
     32 H3         -0.3044   -2.2263    1.4281 H         1 <0>         0.1234
     33 H4         -1.0267   -0.3694    0.1260 H         1 <0>         0.1404
     34 H5          0.3924   -0.3483   -0.9487 H         1 <0>         0.1332
     35 H6         -0.5472    1.9065   -0.8624 H         1 <0>         0.1279
     36 H7         -0.5174    1.8888    0.9206 H         1 <0>         0.0844
     37 H8          2.0360    1.8068    1.9841 H         1 <0>         0.0868
     38 H9          3.3224    1.7822    0.7493 H         1 <0>         0.1177
     39 H10         2.8340   -0.4934    1.7339 H         1 <0>         0.1369
     40 H11         2.5994   -0.4192   -0.0294 H         1 <0>         0.1312
     41 H12         3.6930    3.0716   -0.1442 H         1 <0>         0.1174
     42 H13         0.6323    4.2370   -2.7794 H         1 <0>         0.1293
     43 H14        -0.2618    5.6144   -4.6069 H         1 <0>         0.1263
     44 H15         1.1502    7.3188   -5.6808 H         1 <0>         0.1300
     45 H16         3.4634    7.6656   -4.9435 H         1 <0>         0.1225
     46 H17         7.2074    4.8328   -2.5822 H         1 <0>         0.1231
     47 H18         9.1229    4.3165   -1.1290 H         1 <0>         0.1296
     48 H19         8.7929    4.0182    1.2904 H         1 <0>         0.1285
     49 H20         6.5496    4.2456    2.2738 H         1 <0>         0.1288
     50 H21         4.6209    4.7719    0.8418 H         1 <0>         0.1250
     51 H22         5.7035    7.9618   -1.2685 H         1 <0>         0.1266
     52 H23         7.6076    9.4048   -1.8596 H         1 <0>         0.1338
     53 H24         8.6596    9.2115   -4.0761 H         1 <0>         0.1329
     54 H25         7.8173    7.5693   -5.7043 H         1 <0>         0.1348
     55 H26         5.9201    6.1149   -5.1195 H         1 <0>         0.1292
     56 N4          0.8197   -0.4772    1.1281 N.4       1 <0>        -0.3948
     57 H27         0.4701   -0.0618    1.9996 H         1 <0>         0.4287
@<TRIPOS>BOND
     1    1   30 1
     2    1   31 1
     3    1   32 1
     4    1   56 1
     5    2    3 1
     6    2   33 1
     7    2   34 1
     8    2   56 1
     9    3    4 1
    10    3   35 1
    11    3   36 1
    12    4    5 1
    13    4    7 1
    14    5    6 1
    15    5   37 1
    16    5   38 1
    17    6   39 1
    18    6   40 1
    19    6   56 1
    20    7    8 2
    21    8    9 1
    22    8   41 1
    23    9   17 2
    24    9   10 1
    25   10   15 ar
    26   10   11 ar
    27   11   12 ar
    28   11   42 1
    29   12   13 ar
    30   12   43 1
    31   13   14 ar
    32   13   44 1
    33   14   15 ar
    34   14   45 1
    35   15   16 1
    36   16   17 1
    37   16   24 1
    38   17   18 1
    39   18   23 ar
    40   18   19 ar
    41   19   20 ar
    42   19   46 1
    43   20   21 ar
    44   20   47 1
    45   21   22 ar
    46   21   48 1
    47   22   23 ar
    48   22   49 1
    49   23   50 1
    50   24   29 ar
    51   24   25 ar
    52   25   26 ar
    53   25   51 1
    54   26   27 ar
    55   26   52 1
    56   27   28 ar
    57   27   53 1
    58   28   29 ar
    59   28   54 1
    60   29   55 1
    61   56   57 1
@<TRIPOS>MOLECULE
ZINC12430758
   56    60     0     0     0
SMALL
USER_CHARGES
(4-isopropylthiazol-2-yl)-(2-methoxyphenyl)BLAHone
@<TRIPOS>ATOM
      1 C1          1.3719    3.1144    6.7418 C.3       1 <0>        -0.1518
      2 C2          1.0347    3.7198    5.3777 C.3       1 <0>        -0.0263
      3 C3          2.1019    4.7484    4.9984 C.3       1 <0>        -0.1442
      4 C4          0.9974    2.6284    4.3391 C.2       1 <0>         0.0628
      5 C5          1.8467    1.5719    4.4100 C.2       1 <0>        -0.1720
      6 S1          1.3412    0.6471    2.9668 S.3       1 <0>         0.1499
      7 C6          0.0974    1.7331    2.4288 C.2       1 <0>        -0.0156
      8 N1          0.1405    2.6767    3.3407 N.2       1 <0>        -0.4806
      9 C7         -0.8046    1.6184    1.2270 C.3       1 <0>         0.1406
     10 H1         -1.7408    1.1312    1.4995 H         1 <0>         0.1640
     11 C8         -0.0977    0.8325    0.0960 C.3       1 <0>        -0.1337
     12 C9         -0.8115    1.3529   -1.1753 C.3       1 <0>        -0.0921
     13 H2         -0.2181    1.2483   -2.0835 H         1 <0>         0.1576
     14 C10        -2.2185    0.7215   -1.2544 C.3       1 <0>         0.0895
     15 N2         -3.1308    1.8283   -1.5710 N.am      1 <0>        -0.5428
     16 C11        -2.5560    3.0213   -1.3229 C.2       1 <0>         0.5197
     17 O1         -3.0888    4.0986   -1.4866 O.2       1 <0>        -0.4647
     18 C12        -1.1587    2.8195   -0.8139 C.3       1 <0>         0.0166
     19 C13         0.0404    3.8800    0.9540 C.3       1 <0>         0.0043
     20 C14         0.1414    4.7905   -0.2974 C.3       1 <0>        -0.1416
     21 C15        -0.1503    3.7853   -1.4449 C.3       1 <0>        -0.1137
     22 C16        -4.4308    1.6645   -2.0676 C.ar      1 <0>         0.0833
     23 C17        -4.6510    1.6122   -3.4363 C.ar      1 <0>        -0.0637
     24 C18        -5.9340    1.4507   -3.9237 C.ar      1 <0>        -0.1433
     25 C19        -7.0004    1.3404   -3.0504 C.ar      1 <0>        -0.0568
     26 C20        -6.7887    1.3916   -1.6852 C.ar      1 <0>        -0.1993
     27 C21        -5.5048    1.5480   -1.1883 C.ar      1 <0>         0.1421
     28 O2         -5.2943    1.5924    0.1543 O.3       1 <0>        -0.3215
     29 C22        -6.4426    1.4665    0.9956 C.3       1 <0>         0.0228
     30 H3          2.3454    2.6265    6.6922 H         1 <0>         0.0609
     31 H4          1.3989    3.9037    7.4930 H         1 <0>         0.0721
     32 H5          0.6116    2.3815    7.0120 H         1 <0>         0.0599
     33 H6          0.0613    4.2076    5.4273 H         1 <0>         0.0904
     34 H7          1.8617    5.1797    4.0266 H         1 <0>         0.0546
     35 H8          2.1289    5.5378    5.7496 H         1 <0>         0.0704
     36 H9          3.0754    4.2606    4.9488 H         1 <0>         0.0592
     37 H10         2.6121    1.3496    5.1387 H         1 <0>         0.2103
     38 H11        -0.2516   -0.2400    0.2150 H         1 <0>         0.1368
     39 H12         0.9661    1.0685    0.0668 H         1 <0>         0.1154
     40 H13        -2.2503   -0.0303   -2.0430 H         1 <0>         0.1120
     41 H14        -2.4856    0.2752   -0.2965 H         1 <0>         0.0916
     42 H15        -0.1911    4.4733    1.8386 H         1 <0>         0.1474
     43 H16         0.9681    3.3266    1.1001 H         1 <0>         0.1260
     44 H17        -0.6112    5.5784   -0.2683 H         1 <0>         0.1042
     45 H18         1.1418    5.2127   -0.3928 H         1 <0>         0.1212
     46 H19         0.7584    3.2578   -1.7350 H         1 <0>         0.1121
     47 H20        -0.5903    4.2960   -2.3015 H         1 <0>         0.1179
     48 H21        -3.8199    1.6974   -4.1207 H         1 <0>         0.1356
     49 H22        -6.1042    1.4102   -4.9895 H         1 <0>         0.1382
     50 H23        -8.0013    1.2136   -3.4358 H         1 <0>         0.1377
     51 H24        -7.6238    1.3051   -1.0058 H         1 <0>         0.1395
     52 H25        -7.1403    2.2761    0.7816 H         1 <0>         0.0623
     53 H26        -6.9281    0.5090    0.8067 H         1 <0>         0.0630
     54 H27        -6.1352    1.5183    2.0400 H         1 <0>         0.1039
     55 N3         -1.0657    2.9522    0.6363 N.4       1 <0>        -0.3686
     56 H28        -1.9463    3.3258    1.0096 H         1 <0>         0.4365
@<TRIPOS>BOND
     1    1    2 1
     2    1   30 1
     3    1   31 1
     4    1   32 1
     5    2    3 1
     6    2    4 1
     7    2   33 1
     8    3   34 1
     9    3   35 1
    10    3   36 1
    11    4    8 1
    12    4    5 2
    13    5    6 1
    14    5   37 1
    15    6    7 1
    16    7    8 2
    17    7    9 1
    18    9   10 1
    19    9   11 1
    20    9   55 1
    21   11   12 1
    22   11   38 1
    23   11   39 1
    24   12   13 1
    25   12   18 1
    26   12   14 1
    27   14   15 1
    28   14   40 1
    29   14   41 1
    30   15   16 am
    31   15   22 1
    32   16   17 2
    33   16   18 1
    34   18   21 1
    35   18   55 1
    36   19   20 1
    37   19   42 1
    38   19   43 1
    39   19   55 1
    40   20   21 1
    41   20   44 1
    42   20   45 1
    43   21   46 1
    44   21   47 1
    45   22   27 ar
    46   22   23 ar
    47   23   24 ar
    48   23   48 1
    49   24   25 ar
    50   24   49 1
    51   25   26 ar
    52   25   50 1
    53   26   27 ar
    54   26   51 1
    55   27   28 1
    56   28   29 1
    57   29   52 1
    58   29   53 1
    59   29   54 1
    60   55   56 1
@<TRIPOS>MOLECULE
ZINC19789415
   57    59     0     0     0
SMALL
USER_CHARGES
1-[(3-ethoxy-4-methoxy-phenyl)methyl]-4-[[2-(trifluoromethyl)phenyl]methyl]piperazine
@<TRIPOS>ATOM
      1 C1         -1.1784    1.1017   -1.6602 C.3       1 <0>        -0.1570
      2 C2         -0.4384    0.7090   -0.3799 C.3       1 <0>         0.0538
      3 O1         -1.1745    1.1682    0.7556 O.3       1 <0>        -0.3021
      4 C3         -0.6502    0.8990    1.9813 C.ar      1 <0>         0.1069
      5 C4          0.5433    0.2033    2.0884 C.ar      1 <0>        -0.1497
      6 C5          1.0776   -0.0648    3.3349 C.ar      1 <0>        -0.0926
      7 C6          0.4182    0.3506    4.4769 C.ar      1 <0>        -0.1153
      8 C7         -0.7758    1.0401    4.3772 C.ar      1 <0>        -0.1728
      9 C8         -1.3141    1.3167    3.1307 C.ar      1 <0>         0.1097
     10 O2         -2.4884    1.9953    3.0308 O.3       1 <0>        -0.3029
     11 C9         -3.1139    2.3928    4.2527 C.3       1 <0>         0.0212
     12 C10         2.3786   -0.8166    3.4494 C.3       1 <0>         0.0998
     13 N1          2.1065   -2.2584    3.5210 N.3       1 <0>        -0.5321
     14 C11         1.3987   -2.5997    4.7628 C.3       1 <0>         0.0213
     15 C12         1.0643   -4.0932    4.7623 C.3       1 <0>        -0.0004
     16 N2          2.3052   -4.8703    4.6360 N.4       1 <0>        -0.4206
     17 C13         3.0129   -4.5290    3.3942 C.3       1 <0>         0.0014
     18 C14         3.3473   -3.0355    3.3947 C.3       1 <0>         0.0248
     19 C15         2.0330   -6.3121    4.7076 C.3       1 <0>         0.0210
     20 C16         1.2155   -6.6085    5.9384 C.ar      1 <0>        -0.1001
     21 C17        -0.1340   -6.8857    5.8217 C.ar      1 <0>        -0.0892
     22 C18        -0.8828   -7.1623    6.9501 C.ar      1 <0>        -0.0736
     23 C19        -0.2845   -7.1515    8.1964 C.ar      1 <0>        -0.0875
     24 C20         1.0634   -6.8693    8.3136 C.ar      1 <0>        -0.0585
     25 C21         1.8136   -6.5978    7.1844 C.ar      1 <0>        -0.1778
     26 C22         3.2832   -6.2896    7.3121 C.3       1 <0>         0.5079
     27 F1          3.6768   -6.4393    8.6462 F         1 <0>        -0.1472
     28 F2          4.0158   -7.1694    6.5082 F         1 <0>        -0.1612
     29 F3          3.5212   -4.9738    6.9006 F         1 <0>        -0.1708
     30 H1         -0.6118    0.7482   -2.5343 H         1 <0>         0.0815
     31 H2         -1.2773    2.1963   -1.7055 H         1 <0>         0.0698
     32 H3         -2.1781    0.6429   -1.6613 H         1 <0>         0.0686
     33 H4         -0.3395   -0.3856   -0.3346 H         1 <0>         0.0611
     34 H5          0.5614    1.1678   -0.3788 H         1 <0>         0.0624
     35 H6          1.0583   -0.1259    1.1980 H         1 <0>         0.1364
     36 H7          0.8367    0.1356    5.4490 H         1 <0>         0.1225
     37 H8         -1.2892    1.3629    5.2708 H         1 <0>         0.1379
     38 H9         -4.0482    2.9286    4.0290 H         1 <0>         0.1070
     39 H10        -2.4368    3.0545    4.8129 H         1 <0>         0.0582
     40 H11        -3.3381    1.5013    4.8568 H         1 <0>         0.0563
     41 H12         3.0032   -0.6047    2.5691 H         1 <0>         0.0973
     42 H13         2.9075   -0.4977    4.3596 H         1 <0>         0.0574
     43 H14         2.0395   -2.3667    5.6260 H         1 <0>         0.0583
     44 H15         0.4693   -2.0149    4.8277 H         1 <0>         0.1285
     45 H16         0.5599   -4.3563    5.7038 H         1 <0>         0.1294
     46 H17         0.4006   -4.3201    3.9150 H         1 <0>         0.1350
     47 H18         3.9423   -5.1138    3.3293 H         1 <0>         0.1348
     48 H19         2.3721   -4.7620    2.5310 H         1 <0>         0.1365
     49 H20         3.8512   -2.7713    2.4533 H         1 <0>         0.1269
     50 H21         4.0106   -2.8076    4.2421 H         1 <0>         0.0598
     51 H22         1.4749   -6.6247    3.8127 H         1 <0>         0.1471
     52 H23         2.9839   -6.8628    4.7577 H         1 <0>         0.1447
     53 H24        -0.6023   -6.8897    4.8485 H         1 <0>         0.1480
     54 H25        -1.9361   -7.3824    6.8586 H         1 <0>         0.1498
     55 H26        -0.8705   -7.3632    9.0785 H         1 <0>         0.1516
     56 H27         1.5307   -6.8605    9.2872 H         1 <0>         0.1531
     57 H28         2.9578   -4.6083    5.4818 H         1 <0>         0.4239
@<TRIPOS>BOND
     1    1    2 1
     2    1   30 1
     3    1   31 1
     4    1   32 1
     5    2    3 1
     6    2   33 1
     7    2   34 1
     8    3    4 1
     9    4    9 ar
    10    4    5 ar
    11    5    6 ar
    12    5   35 1
    13    6    7 ar
    14    6   12 1
    15    7    8 ar
    16    7   36 1
    17    8    9 ar
    18    8   37 1
    19    9   10 1
    20   10   11 1
    21   11   38 1
    22   11   39 1
    23   11   40 1
    24   12   13 1
    25   12   41 1
    26   12   42 1
    27   13   18 1
    28   13   14 1
    29   14   15 1
    30   14   43 1
    31   14   44 1
    32   15   16 1
    33   15   45 1
    34   15   46 1
    35   16   17 1
    36   16   19 1
    37   16   57 1
    38   17   18 1
    39   17   47 1
    40   17   48 1
    41   18   49 1
    42   18   50 1
    43   19   20 1
    44   19   51 1
    45   19   52 1
    46   20   25 ar
    47   20   21 ar
    48   21   22 ar
    49   21   53 1
    50   22   23 ar
    51   22   54 1
    52   23   24 ar
    53   23   55 1
    54   24   25 ar
    55   24   56 1
    56   25   26 1
    57   26   27 1
    58   26   28 1
    59   26   29 1
@<TRIPOS>MOLECULE
ZINC34683707
   53    56     0     0     0
SMALL
USER_CHARGES

@<TRIPOS>ATOM
      1 C1         -0.5402    0.0176    1.1478 C.2       1 <0>        -0.1805
      2 C2          0.5398    0.8403    0.8882 C.2       1 <0>        -0.0779
      3 C3          1.7703    0.2876    0.7556 C.2       1 <0>        -0.2705
      4 S1          1.4243   -1.4468    0.9998 S.3       1 <0>         0.0864
      5 C4         -0.3369   -1.3177    1.2620 C.2       1 <0>        -0.1159
      6 C5          3.0883    0.9619    0.4745 C.3       1 <0>         0.0978
      7 N1          3.7303    1.3304    1.7434 N.4       1 <0>        -0.3860
      8 C6          4.0597    0.1134    2.4949 C.3       1 <0>        -0.0124
      9 C7          4.6547    0.4931    3.8526 C.3       1 <0>        -0.1530
     10 C8          5.9253    1.3195    3.6338 C.3       1 <0>         0.1363
     11 C9          5.5837    2.5480    2.7858 C.3       1 <0>        -0.1723
     12 C10         4.9543    2.0922    1.4677 C.3       1 <0>        -0.0041
     13 N2          6.4582    1.7507    4.9286 N.pl3     1 <0>        -0.9408
     14 C11         5.6478    2.4671    5.8146 C.ar      1 <0>         0.1050
     15 C12         5.3252    3.7910    5.5465 C.ar      1 <0>        -0.0923
     16 C13         4.5242    4.4966    6.4229 C.ar      1 <0>        -0.1461
     17 C14         4.0428    3.8850    7.5681 C.ar      1 <0>         0.1206
     18 C15         4.3632    2.5651    7.8374 C.ar      1 <0>        -0.1385
     19 C16         5.1596    1.8541    6.9611 C.ar      1 <0>        -0.0657
     20 F1          3.2598    4.5772    8.4242 F         1 <0>        -0.1282
     21 S2          8.0204    1.3896    5.3427 S.o2      1 <0>         2.6817
     22 O1          8.1104    1.5345    6.7534 O.2       1 <0>        -0.9263
     23 O2          8.3463    0.1760    4.6792 O.2       1 <0>        -0.9400
     24 C17         9.0471    2.6382    4.6416 C.ar      1 <0>        -0.6980
     25 C18         9.5583    2.4771    3.3673 C.ar      1 <0>         0.0041
     26 C19        10.3633    3.4559    2.8163 C.ar      1 <0>        -0.1738
     27 C20        10.6578    4.5984    3.5410 C.ar      1 <0>         0.1670
     28 C21        10.1452    4.7587    4.8172 C.ar      1 <0>        -0.1706
     29 C22         9.3362    3.7808    5.3641 C.ar      1 <0>         0.0154
     30 F2         11.4450    5.5557    3.0034 F         1 <0>        -0.1219
     31 H1         -1.5306    0.4330    1.2622 H         1 <0>         0.1497
     32 H2          0.4051    1.9076    0.7921 H         1 <0>         0.1429
     33 H3         -1.0541   -2.1003    1.4606 H         1 <0>         0.1997
     34 H4          3.7359    0.2790   -0.0754 H         1 <0>         0.1420
     35 H5          2.9178    1.8592   -0.1204 H         1 <0>         0.1486
     36 H6          3.1550   -0.4752    2.6471 H         1 <0>         0.1353
     37 H7          4.7847   -0.4751    1.9328 H         1 <0>         0.1362
     38 H8          3.9303    1.0815    4.4158 H         1 <0>         0.0987
     39 H9          4.9002   -0.4119    4.4083 H         1 <0>         0.1228
     40 H10         6.6690    0.7142    3.1156 H         1 <0>         0.1239
     41 H11         4.8786    3.1791    3.3268 H         1 <0>         0.1038
     42 H12         6.4933    3.1119    2.5790 H         1 <0>         0.1208
     43 H13         5.6603    1.4615    0.9274 H         1 <0>         0.1360
     44 H14         4.7100    2.9645    0.8614 H         1 <0>         0.1392
     45 H15         5.7007    4.2685    4.6535 H         1 <0>         0.1396
     46 H16         4.2733    5.5263    6.2149 H         1 <0>         0.1453
     47 H17         3.9870    2.0902    8.7314 H         1 <0>         0.1483
     48 H18         5.4056    0.8233    7.1693 H         1 <0>         0.1404
     49 H19         9.3288    1.5857    2.8024 H         1 <0>         0.1489
     50 H20        10.7629    3.3296    1.8209 H         1 <0>         0.1503
     51 H21        10.3745    5.6492    5.3835 H         1 <0>         0.1516
     52 H22         8.9326    3.9077    6.3578 H         1 <0>         0.1519
     53 H23         3.0974    1.8980    2.2870 H         1 <0>         0.4246
@<TRIPOS>BOND
     1    1    5 2
     2    1    2 1
     3    1   31 1
     4    2    3 2
     5    2   32 1
     6    3    4 1
     7    3    6 1
     8    4    5 1
     9    5   33 1
    10    6    7 1
    11    6   34 1
    12    6   35 1
    13    7   12 1
    14    7    8 1
    15    7   53 1
    16    8    9 1
    17    8   36 1
    18    8   37 1
    19    9   10 1
    20    9   38 1
    21    9   39 1
    22   10   11 1
    23   10   13 1
    24   10   40 1
    25   11   12 1
    26   11   41 1
    27   11   42 1
    28   12   43 1
    29   12   44 1
    30   13   14 1
    31   13   21 1
    32   14   19 ar
    33   14   15 ar
    34   15   16 ar
    35   15   45 1
    36   16   17 ar
    37   16   46 1
    38   17   18 ar
    39   17   20 1
    40   18   19 ar
    41   18   47 1
    42   19   48 1
    43   21   22 2
    44   21   23 2
    45   21   24 1
    46   24   29 ar
    47   24   25 ar
    48   25   26 ar
    49   25   49 1
    50   26   27 ar
    51   26   50 1
    52   27   28 ar
    53   27   30 1
    54   28   29 ar
    55   28   51 1
    56   29   52 1
@<TRIPOS>MOLECULE
ZINC39573289
   48    51     0     0     0
SMALL
USER_CHARGES

@<TRIPOS>ATOM
      1 C1         -0.0167    1.3785    0.0096 C.ar      1 <0>        -0.0867
      2 C2          1.1697    2.0888    0.0021 C.ar      1 <0>        -0.0964
      3 C3          2.3774    1.4186   -0.0130 C.ar      1 <0>        -0.1032
      4 C4          2.3993    0.0307   -0.0206 C.ar      1 <0>         0.0713
      5 C5          1.2067   -0.6797   -0.0130 C.ar      1 <0>        -0.1034
      6 C6          0.0021   -0.0041    0.0020 C.ar      1 <0>        -0.0980
      7 N1          3.6240   -0.6526   -0.0364 N.pl3     1 <0>        -0.4046
      8 C7          4.1147   -1.4489   -1.0370 C.2       1 <0>         0.1027
      9 N2          5.2790   -1.8862   -0.6482 N.2       1 <0>        -0.2213
     10 N3          5.5575   -1.4262    0.5190 N.2       1 <0>        -0.2783
     11 C8          4.5803   -0.6579    0.9418 C.2       1 <0>         0.1984
     12 S1          4.5118    0.2002    2.4792 S.3       1 <0>         0.0435
     13 C9          6.0761   -0.2290    3.2914 C.3       1 <0>        -0.0162
     14 C10         6.1468    0.4491    4.6353 C.2       1 <0>        -0.1654
     15 C11         5.7313   -0.0046    5.8427 C.2       1 <0>        -0.1053
     16 C12         5.8992    0.7991    6.9553 C.2       1 <0>        -0.1466
     17 C13         6.4750    2.0181    6.8044 C.2       1 <0>        -0.1014
     18 S2          6.8069    2.0550    5.0506 S.3       1 <0>         0.1217
     19 Cl1         6.8089    3.2258    8.0059 Cl        1 <0>         0.0324
     20 C14         3.4340   -1.7620   -2.3445 C.3       1 <0>         0.0987
     21 N4          3.8194   -0.7617   -3.3490 N.4       1 <0>        -0.3823
     22 C15         3.3143    0.5557   -2.9443 C.3       1 <0>        -0.0156
     23 C16         3.7817    1.6148   -3.9449 C.3       1 <0>        -0.1422
     24 C17         3.2457    1.2663   -5.3364 C.3       1 <0>        -0.1379
     25 C18         3.7175   -0.1400   -5.7170 C.3       1 <0>        -0.1455
     26 C19         3.2525   -1.1341   -4.6507 C.3       1 <0>        -0.0071
     27 H1         -0.9597    1.9046    0.0260 H         1 <0>         0.1422
     28 H2          1.1520    3.1687    0.0077 H         1 <0>         0.1446
     29 H3          3.3036    1.9739   -0.0192 H         1 <0>         0.1359
     30 H4          1.2208   -1.7596   -0.0193 H         1 <0>         0.1345
     31 H5         -0.9261   -0.5562    0.0082 H         1 <0>         0.1439
     32 H6          6.1311   -1.3092    3.4261 H         1 <0>         0.1258
     33 H7          6.9097    0.1029    2.6726 H         1 <0>         0.1181
     34 H8          5.2755   -0.9793    5.9346 H         1 <0>         0.1481
     35 H9          5.5765    0.4618    7.9292 H         1 <0>         0.1508
     36 H10         3.7367   -2.7527   -2.6836 H         1 <0>         0.1677
     37 H11         2.3531   -1.7399   -2.2059 H         1 <0>         0.1453
     38 H12         2.2248    0.5349   -2.9203 H         1 <0>         0.1302
     39 H13         3.6940    0.8009   -1.9524 H         1 <0>         0.1187
     40 H14         3.4042    2.5920   -3.6436 H         1 <0>         0.1126
     41 H15         4.8712    1.6366   -3.9695 H         1 <0>         0.0883
     42 H16         2.1561    1.2945   -5.3249 H         1 <0>         0.0827
     43 H17         3.6224    1.9863   -6.0630 H         1 <0>         0.0966
     44 H18         3.2941   -0.4172   -6.6824 H         1 <0>         0.1163
     45 H19         4.8057   -0.1546   -5.7784 H         1 <0>         0.0899
     46 H20         3.5866   -2.1364   -4.9187 H         1 <0>         0.1367
     47 H21         2.1643   -1.1188   -4.5903 H         1 <0>         0.1312
     48 H22         4.8254   -0.7270   -3.4189 H         1 <0>         0.4288
@<TRIPOS>BOND
     1    1    6 ar
     2    1    2 ar
     3    1   27 1
     4    2    3 ar
     5    2   28 1
     6    3    4 ar
     7    3   29 1
     8    4    5 ar
     9    4    7 1
    10    5    6 ar
    11    5   30 1
    12    6   31 1
    13    7   11 1
    14    7    8 1
    15    8    9 2
    16    8   20 1
    17    9   10 1
    18   10   11 2
    19   11   12 1
    20   12   13 1
    21   13   14 1
    22   13   32 1
    23   13   33 1
    24   14   18 1
    25   14   15 2
    26   15   16 1
    27   15   34 1
    28   16   17 2
    29   16   35 1
    30   17   18 1
    31   17   19 1
    32   20   21 1
    33   20   36 1
    34   20   37 1
    35   21   26 1
    36   21   22 1
    37   21   48 1
    38   22   23 1
    39   22   38 1
    40   22   39 1
    41   23   24 1
    42   23   40 1
    43   23   41 1
    44   24   25 1
    45   24   42 1
    46   24   43 1
    47   25   26 1
    48   25   44 1
    49   25   45 1
    50   26   46 1
    51   26   47 1
@<TRIPOS>MOLECULE
ZINC05446707
   69    71     0     0     0
SMALL
USER_CHARGES
N-(diazepan-1-yl-tert-butyl-phosphoranylidene)morpholine-4-carbothioamide
@<TRIPOS>ATOM
      1 C1         -3.4252    5.5072   -1.5799 C.3       1 <0>        -0.1489
      2 C2         -4.6086    4.8790   -0.8410 C.3       1 <0>        -0.6818
      3 C3         -5.9167    5.4359   -1.4064 C.3       1 <0>        -0.1322
      4 C4         -4.5144    5.2122    0.6493 C.3       1 <0>        -0.1474
      5 P1         -4.5723    3.0699   -1.0627 P.3       1 <0>         2.6769
      6 N1         -6.0006    2.4942   -0.8574 N.2       1 <0>        -1.1983
      7 C5         -6.1583    1.2383   -0.5040 C.2       1 <0>         0.6138
      8 S1         -4.7902    0.2641   -0.1720 S.2       1 <0>        -0.7458
      9 N2         -7.3972    0.7172   -0.4029 N.pl3     1 <0>        -0.5599
     10 C6         -8.5883    1.5365   -0.6773 C.3       1 <0>         0.0761
     11 C7         -9.4800    0.7695   -1.6668 C.3       1 <0>         0.0480
     12 O1         -9.7179   -0.5463   -1.1609 O.3       1 <0>        -0.3817
     13 C8         -8.5389   -1.3435   -1.0260 C.3       1 <0>         0.0495
     14 C9         -7.5988   -0.6862   -0.0090 C.3       1 <0>         0.0663
     15 N3         -3.5251    2.3875    0.0644 N.pl3     1 <0>        -0.8670
     16 C10        -4.0368    2.5656    1.4377 C.3       1 <0>         0.0732
     17 C11        -3.5507    1.4065    2.2712 C.3       1 <0>        -0.1091
     18 C12        -2.2564    1.7546    3.0258 C.3       1 <0>        -0.1216
     19 C13        -1.2806    2.5660    2.1505 C.3       1 <0>        -0.1205
     20 C14        -1.2063    2.0526    0.7356 C.3       1 <0>        -0.1087
     21 C15        -2.2153    2.8331   -0.1348 C.3       1 <0>         0.0393
     22 N4         -4.0387    2.7057   -2.6167 N.pl3     1 <0>        -0.9444
     23 C16        -4.9491    3.2726   -3.6366 C.3       1 <0>         0.0534
     24 C17        -4.6723    2.7513   -5.0204 C.3       1 <0>        -0.1184
     25 C18        -5.5896    1.5377   -5.2791 C.3       1 <0>        -0.1208
     26 C19        -5.0937    0.3256   -4.6365 C.3       1 <0>        -0.1239
     27 C20        -5.0133    0.4705   -3.1023 C.3       1 <0>        -0.1425
     28 C21        -3.7765    1.2563   -2.7614 C.3       1 <0>         0.0431
     29 H1         -3.4924    5.2698   -2.6416 H         1 <0>         0.0747
     30 H2         -3.4470    6.5889   -1.4473 H         1 <0>         0.0720
     31 H3         -2.4934    5.1104   -1.1771 H         1 <0>         0.0670
     32 H4         -6.7571    5.0371   -0.8383 H         1 <0>         0.0786
     33 H5         -5.9110    6.5233   -1.3318 H         1 <0>         0.0667
     34 H6         -6.0139    5.1440   -2.4521 H         1 <0>         0.0612
     35 H7         -3.4923    5.0534    0.9932 H         1 <0>         0.0700
     36 H8         -4.7931    6.2541    0.8069 H         1 <0>         0.0749
     37 H9         -5.1907    4.5664    1.2094 H         1 <0>         0.0672
     38 H10        -9.1329    1.7146    0.2500 H         1 <0>         0.0718
     39 H11        -8.2865    2.4881   -1.1148 H         1 <0>         0.1107
     40 H12        -8.9816    0.7031   -2.6340 H         1 <0>         0.0538
     41 H13       -10.4292    1.2929   -1.7808 H         1 <0>         0.1034
     42 H14        -8.0371   -1.4176   -1.9908 H         1 <0>         0.0561
     43 H15        -8.8111   -2.3403   -0.6789 H         1 <0>         0.1074
     44 H16        -6.6414   -1.2072   -0.0039 H         1 <0>         0.1326
     45 H17        -8.0455   -0.7281    0.9844 H         1 <0>         0.0758
     46 H18        -5.1266    2.5791    1.4258 H         1 <0>         0.0706
     47 H19        -3.6614    3.5008    1.8530 H         1 <0>         0.0563
     48 H20        -3.3638    0.5531    1.6193 H         1 <0>         0.1154
     49 H21        -4.3224    1.1389    2.9930 H         1 <0>         0.0554
     50 H22        -2.5083    2.3387    3.9110 H         1 <0>         0.0510
     51 H23        -1.7686    0.8311    3.3379 H         1 <0>         0.0602
     52 H24        -1.6056    3.6063    2.1321 H         1 <0>         0.0508
     53 H25        -0.2860    2.5176    2.5939 H         1 <0>         0.0586
     54 H26        -1.4544    0.9914    0.7188 H         1 <0>         0.0877
     55 H27        -0.1988    2.1991    0.3461 H         1 <0>         0.0656
     56 H28        -1.9523    2.7049   -1.1849 H         1 <0>         0.0864
     57 H29        -2.1576    3.8915    0.1189 H         1 <0>         0.0285
     58 H30        -5.9761    3.0260   -3.3670 H         1 <0>         0.0596
     59 H31        -4.8400    4.3571   -3.6412 H         1 <0>         0.0781
     60 H32        -3.6291    2.4441   -5.0942 H         1 <0>         0.0825
     61 H33        -4.8804    3.5305   -5.7537 H         1 <0>         0.0744
     62 H34        -5.6557    1.3668   -6.3536 H         1 <0>         0.0626
     63 H35        -6.5851    1.7600   -4.8947 H         1 <0>         0.0569
     64 H36        -4.0996    0.1014   -5.0233 H         1 <0>         0.0624
     65 H37        -5.7620   -0.5007   -4.8792 H         1 <0>         0.0579
     66 H38        -4.9580   -0.5167   -2.6436 H         1 <0>         0.0945
     67 H39        -5.8945    0.9982   -2.7376 H         1 <0>         0.0629
     68 H40        -3.0384    1.1096   -3.5500 H         1 <0>         0.0766
     69 H41        -3.3686    0.8776   -1.8242 H         1 <0>         0.1343
@<TRIPOS>BOND
     1    1    2 1
     2    1   29 1
     3    1   30 1
     4    1   31 1
     5    2    3 1
     6    2    4 1
     7    2    5 1
     8    3   32 1
     9    3   33 1
    10    3   34 1
    11    4   35 1
    12    4   36 1
    13    4   37 1
    14    5    6 2
    15    5   15 1
    16    5   22 1
    17    6    7 1
    18    7    8 2
    19    7    9 1
    20    9   14 1
    21    9   10 1
    22   10   11 1
    23   10   38 1
    24   10   39 1
    25   11   12 1
    26   11   40 1
    27   11   41 1
    28   12   13 1
    29   13   14 1
    30   13   42 1
    31   13   43 1
    32   14   44 1
    33   14   45 1
    34   15   21 1
    35   15   16 1
    36   16   17 1
    37   16   46 1
    38   16   47 1
    39   17   18 1
    40   17   48 1
    41   17   49 1
    42   18   19 1
    43   18   50 1
    44   18   51 1
    45   19   20 1
    46   19   52 1
    47   19   53 1
    48   20   21 1
    49   20   54 1
    50   20   55 1
    51   21   56 1
    52   21   57 1
    53   22   28 1
    54   22   23 1
    55   23   24 1
    56   23   58 1
    57   23   59 1
    58   24   25 1
    59   24   60 1
    60   24   61 1
    61   25   26 1
    62   25   62 1
    63   25   63 1
    64   26   27 1
    65   26   64 1
    66   26   65 1
    67   27   28 1
    68   27   66 1
    69   27   67 1
    70   28   68 1
    71   28   69 1
@<TRIPOS>MOLECULE
ZINC09566117
   45    47     0     0     0
SMALL
USER_CHARGES
N-(4,6-difluoro-3-prop-2-ynyl-benzothiazol-2-ylidene)-2-(4-ethylsulfonylphenyl)-acetamide
@<TRIPOS>ATOM
      1 C1          0.1304    1.5325    0.1329 C.3       1 <0>        -0.1510
      2 C2          0.2455    0.0092    0.2169 C.3       1 <0>        -0.6074
      3 S1          0.6980   -0.6536   -1.4099 S.o2      1 <0>         2.4936
      4 O1         -0.3712   -0.4703   -2.3278 O.2       1 <0>        -0.9347
      5 O2          2.0199   -0.2578   -1.7492 O.2       1 <0>        -0.9353
      6 C3          0.7966   -2.3973   -1.1769 C.ar      1 <0>        -0.6593
      7 C4          1.9960   -2.9790   -0.8105 C.ar      1 <0>        -0.0187
      8 C5          2.0723   -4.3465   -0.6235 C.ar      1 <0>        -0.1310
      9 C6          0.9515   -5.1334   -0.8118 C.ar      1 <0>        -0.0170
     10 C7         -0.2465   -4.5524   -1.1832 C.ar      1 <0>        -0.1219
     11 C8         -0.3239   -3.1844   -1.3660 C.ar      1 <0>        -0.0188
     12 C9          1.0356   -6.6247   -0.6115 C.3       1 <0>        -0.1129
     13 C10         1.4083   -7.2861   -1.9133 C.2       1 <0>         0.4862
     14 O3          1.5884   -6.6111   -2.9086 O.2       1 <0>        -0.4755
     15 N1          1.5401   -8.6068   -1.9736 N.2       1 <0>        -0.5754
     16 C11         2.6888   -9.1434   -2.3805 C.2       1 <0>         0.4087
     17 N2          3.8803   -8.5250   -2.5887 N.pl3     1 <0>        -0.5313
     18 C12         4.9767   -9.2561   -3.0133 C.ar      1 <0>         0.0885
     19 C13         6.2800   -8.7997   -3.2763 C.ar      1 <0>         0.1380
     20 C14         7.2579   -9.6701   -3.7012 C.ar      1 <0>        -0.1481
     21 C15         6.9891  -11.0187   -3.8823 C.ar      1 <0>         0.1351
     22 C16         5.7125  -11.4935   -3.6294 C.ar      1 <0>        -0.0775
     23 C17         4.7356  -10.6233   -3.2048 C.ar      1 <0>        -0.1224
     24 S2          3.0211  -10.7980   -2.7791 S.3       1 <0>         0.2053
     25 F1          7.9606  -11.8591   -4.3008 F         1 <0>        -0.1143
     26 F2          6.5760   -7.4920   -3.1106 F         1 <0>        -0.1181
     27 C18         4.0063   -7.0835   -2.3600 C.3       1 <0>         0.1990
     28 C19         3.8393   -6.3678   -3.6354 C.1       1 <0>        -0.2090
     29 C20         3.7061   -5.7971   -4.6526 C.1       1 <0>        -0.1336
     30 H1          1.0871    1.9527   -0.1772 H         1 <0>         0.0747
     31 H2         -0.6365    1.7994   -0.5943 H         1 <0>         0.0749
     32 H3         -0.1416    1.9308    1.1105 H         1 <0>         0.0857
     33 H4          1.0123   -0.2577    0.9441 H         1 <0>         0.1351
     34 H5         -0.7113   -0.4109    0.5271 H         1 <0>         0.1354
     35 H6          2.8725   -2.3646   -0.6671 H         1 <0>         0.1431
     36 H7          3.0082   -4.8004   -0.3330 H         1 <0>         0.1271
     37 H8         -1.1222   -5.1673   -1.3303 H         1 <0>         0.1336
     38 H9         -1.2599   -2.7305   -1.6563 H         1 <0>         0.1439
     39 H10         1.7932   -6.8483    0.1396 H         1 <0>         0.1085
     40 H11         0.0693   -7.0013   -0.2762 H         1 <0>         0.1199
     41 H12         8.2520   -9.2963   -3.8973 H         1 <0>         0.1659
     42 H13         5.4857  -12.5407   -3.7648 H         1 <0>         0.1647
     43 H14         3.2384   -6.7586   -1.6578 H         1 <0>         0.1090
     44 H15         4.9914   -6.8658   -1.9474 H         1 <0>         0.1173
     45 H16         3.5870   -5.2866   -5.5624 H         1 <0>         0.2197
@<TRIPOS>BOND
     1    1    2 1
     2    1   30 1
     3    1   31 1
     4    1   32 1
     5    2    3 1
     6    2   33 1
     7    2   34 1
     8    3    4 2
     9    3    5 2
    10    3    6 1
    11    6   11 ar
    12    6    7 ar
    13    7    8 ar
    14    7   35 1
    15    8    9 ar
    16    8   36 1
    17    9   10 ar
    18    9   12 1
    19   10   11 ar
    20   10   37 1
    21   11   38 1
    22   12   13 1
    23   12   39 1
    24   12   40 1
    25   13   14 2
    26   13   15 1
    27   15   16 2
    28   16   24 1
    29   16   17 1
    30   17   18 1
    31   17   27 1
    32   18   23 ar
    33   18   19 ar
    34   19   20 ar
    35   19   26 1
    36   20   21 ar
    37   20   41 1
    38   21   22 ar
    39   21   25 1
    40   22   23 ar
    41   22   42 1
    42   23   24 1
    43   27   28 1
    44   27   43 1
    45   27   44 1
    46   28   29 3
    47   29   45 1
@<TRIPOS>MOLECULE
ZINC13939696
   44    46     0     0     0
SMALL
USER_CHARGES
(5Z)-5-[[3-chloro-4-[(2-fluorophenyl)methoxy]-5-methoxy-phenyl]methylene]-3-prop-2-ynyl-thiazolidine-2,4-dione
@<TRIPOS>ATOM
      1 C1         -4.8994    0.1455    3.1726 C.3       1 <0>         0.0197
      2 O1         -4.3285    0.5479    1.9259 O.3       1 <0>        -0.2967
      3 C2         -5.1616    0.5955    0.8521 C.ar      1 <0>         0.1281
      4 C3         -6.4942    0.2625    0.9972 C.ar      1 <0>        -0.1590
      5 C4         -7.3494    0.3125   -0.1104 C.ar      1 <0>        -0.0428
      6 C5         -6.8486    0.7000   -1.3593 C.ar      1 <0>        -0.1112
      7 C6         -5.5183    1.0353   -1.4935 C.ar      1 <0>        -0.0158
      8 C7         -4.6701    0.9800   -0.3943 C.ar      1 <0>         0.0962
      9 O2         -3.3587    1.3070   -0.5336 O.3       1 <0>        -0.3067
     10 C8         -2.4580    0.2487   -0.8665 C.3       1 <0>         0.1122
     11 C9         -1.0586    0.7966   -0.9784 C.ar      1 <0>        -0.1221
     12 C10        -0.8230    2.1410   -0.7603 C.ar      1 <0>        -0.0666
     13 C11         0.4595    2.6450   -0.8689 C.ar      1 <0>        -0.1288
     14 C12         1.5090    1.8041   -1.1902 C.ar      1 <0>        -0.0894
     15 C13         1.2768    0.4587   -1.4031 C.ar      1 <0>        -0.1520
     16 C14        -0.0077   -0.0473   -1.2945 C.ar      1 <0>         0.1033
     17 F1         -0.2360   -1.3626   -1.5024 F         1 <0>        -0.1377
     18 Cl1        -4.8997    1.5215   -3.0410 Cl        1 <0>        -0.0290
     19 C15        -8.7672   -0.0400    0.0375 C.2       1 <0>         0.0688
     20 C16        -9.6591    0.3190   -0.9205 C.2       1 <0>        -0.2011
     21 C17       -11.0807   -0.0510   -1.0689 C.2       1 <0>         0.5598
     22 O3        -11.6380   -0.7812   -0.2704 O.2       1 <0>        -0.4601
     23 N1        -11.7190    0.4545   -2.1109 N.am      1 <0>        -0.5768
     24 C18       -11.0959    1.2578   -2.9970 C.2       1 <0>         0.5370
     25 O4        -11.5551    1.7832   -3.9933 O.2       1 <0>        -0.4074
     26 S1         -9.4336    1.3634   -2.3537 S.3       1 <0>        -0.0320
     27 C19       -13.1334    0.1292   -2.3109 C.3       1 <0>         0.2089
     28 C20       -13.2457   -1.0887   -3.1298 C.1       1 <0>        -0.2277
     29 C21       -13.3353   -2.0601   -3.7830 C.1       1 <0>        -0.1469
     30 H1         -4.1288    0.1503    3.9435 H         1 <0>         0.1081
     31 H2         -5.6940    0.8386    3.4489 H         1 <0>         0.0620
     32 H3         -5.3108   -0.8593    3.0764 H         1 <0>         0.0610
     33 H4         -6.8757   -0.0355    1.9626 H         1 <0>         0.1521
     34 H5         -7.5050    0.7399   -2.2160 H         1 <0>         0.1531
     35 H6         -2.7524   -0.1931   -1.8184 H         1 <0>         0.0735
     36 H7         -2.4887   -0.5130   -0.0874 H         1 <0>         0.0749
     37 H8         -1.6420    2.7989   -0.5096 H         1 <0>         0.1427
     38 H9          0.6420    3.6965   -0.7030 H         1 <0>         0.1321
     39 H10         2.5106    2.1990   -1.2751 H         1 <0>         0.1342
     40 H11         2.0966   -0.1979   -1.6544 H         1 <0>         0.1381
     41 H12        -9.1002   -0.5848    0.9085 H         1 <0>         0.1701
     42 H13       -13.6079   -0.0381   -1.3439 H         1 <0>         0.1258
     43 H14       -13.6279    0.9564   -2.8201 H         1 <0>         0.1230
     44 H15       -13.4155   -2.9289   -4.3672 H         1 <0>         0.2250
@<TRIPOS>BOND
     1    1    2 1
     2    1   30 1
     3    1   31 1
     4    1   32 1
     5    2    3 1
     6    3    8 ar
     7    3    4 ar
     8    4    5 ar
     9    4   33 1
    10    5    6 ar
    11    5   19 1
    12    6    7 ar
    13    6   34 1
    14    7    8 ar
    15    7   18 1
    16    8    9 1
    17    9   10 1
    18   10   11 1
    19   10   35 1
    20   10   36 1
    21   11   16 ar
    22   11   12 ar
    23   12   13 ar
    24   12   37 1
    25   13   14 ar
    26   13   38 1
    27   14   15 ar
    28   14   39 1
    29   15   16 ar
    30   15   40 1
    31   16   17 1
    32   19   20 2
    33   19   41 1
    34   20   26 1
    35   20   21 1
    36   21   22 2
    37   21   23 am
    38   23   24 am
    39   23   27 1
    40   24   25 2
    41   24   26 1
    42   27   28 1
    43   27   42 1
    44   27   43 1
    45   28   29 3
    46   29   44 1
@<TRIPOS>MOLECULE
ZINC23515320
   45    47     0     0     0
SMALL
USER_CHARGES
N-(2-chloro-4,6-dimethyl-phenyl)-N-[4-[(1-oxidopyridin-1-ium-2-yl)sulfanylmethyl]thiazol-2-yl]acetamide
@<TRIPOS>ATOM
      1 C1          6.6121    5.4209   -0.3360 C.3       1 <0>        -0.1240
      2 C2          5.2317    4.8342   -0.1898 C.ar      1 <0>        -0.0427
      3 C3          4.7767    4.4432    1.0563 C.ar      1 <0>        -0.1104
      4 C4          3.5098    3.9108    1.1951 C.ar      1 <0>        -0.0432
      5 C5          2.6969    3.7566    0.0802 C.ar      1 <0>         0.0934
      6 C6          3.1566    4.1497   -1.1707 C.ar      1 <0>        -0.0130
      7 C7          4.4232    4.6876   -1.3017 C.ar      1 <0>        -0.1114
      8 Cl1         2.1419    3.9652   -2.5671 Cl        1 <0>        -0.0430
      9 N1          1.4136    3.2109    0.2170 N.am      1 <0>        -0.4634
     10 C8          1.2261    1.8370    0.1034 C.2       1 <0>         0.3181
     11 N2          0.0997    1.1512    0.1094 N.2       1 <0>        -0.5018
     12 C9          0.0986   -0.1617   -0.0106 C.2       1 <0>         0.0949
     13 C10         1.2876   -0.7996   -0.1414 C.2       1 <0>        -0.2079
     14 S1          2.4152    0.5854   -0.0836 S.3       1 <0>         0.0858
     15 C11        -1.1947   -0.9354   -0.0029 C.3       1 <0>        -0.0682
     16 S2         -1.8170   -1.0898   -1.6998 S.3       1 <0>         0.0404
     17 C12        -3.3120   -2.0056   -1.5239 C.ar      1 <0>         0.0724
     18 C13        -3.8990   -2.1324   -0.2695 C.ar      1 <0>        -0.1419
     19 C14        -5.0759   -2.8495   -0.1465 C.ar      1 <0>        -0.0578
     20 C15        -5.6219   -3.4277   -1.2846 C.ar      1 <0>        -0.1333
     21 C16        -4.9831   -3.2667   -2.4983 C.ar      1 <0>         0.0929
     22 N3         -3.8641   -2.5721   -2.5873 N.ar      1 <0>        -0.1137
     23 O1         -3.2383   -2.4291   -3.8494 O.3       1 <0>        -0.5316
     24 C17         0.3608    4.0171    0.4585 C.2       1 <0>         0.5176
     25 O2         -0.7339    3.5386    0.6676 O.2       1 <0>        -0.4634
     26 C18         0.5439    5.5129    0.4689 C.3       1 <0>        -0.1710
     27 C19         3.0128    3.4914    2.5546 C.3       1 <0>        -0.1283
     28 H1          7.1009    5.4581    0.6487 H         1 <0>         0.0743
     29 H2          6.5363    6.4386   -0.7464 H         1 <0>         0.0802
     30 H3          7.2066    4.7942   -1.0170 H         1 <0>         0.0801
     31 H4          5.4108    4.5591    1.9228 H         1 <0>         0.1418
     32 H5          4.7815    4.9938   -2.2735 H         1 <0>         0.1453
     33 H6          1.4958   -1.8537   -0.2508 H         1 <0>         0.2054
     34 H7         -1.0201   -1.9373    0.4162 H         1 <0>         0.1131
     35 H8         -1.9359   -0.4046    0.6126 H         1 <0>         0.1123
     36 H9         -3.4448   -1.6735    0.5962 H         1 <0>         0.1598
     37 H10        -5.5565   -2.9611    0.8142 H         1 <0>         0.1569
     38 H11        -6.5369   -3.9981   -1.2213 H         1 <0>         0.1662
     39 H12        -5.4041   -3.7150   -3.3861 H         1 <0>         0.1861
     40 H13        -0.4197    5.9988    0.6819 H         1 <0>         0.1055
     41 H14         0.9124    5.8440   -0.5132 H         1 <0>         0.0949
     42 H15         1.2727    5.7877    1.2457 H         1 <0>         0.0952
     43 H16         1.9908    3.0945    2.4650 H         1 <0>         0.0665
     44 H17         3.0107    4.3608    3.2285 H         1 <0>         0.0855
     45 H18         3.6741    2.7128    2.9626 H         1 <0>         0.0853
@<TRIPOS>BOND
     1    1    2 1
     2    1   28 1
     3    1   29 1
     4    1   30 1
     5    2    7 ar
     6    2    3 ar
     7    3    4 ar
     8    3   31 1
     9    4    5 ar
    10    4   27 1
    11    5    6 ar
    12    5    9 1
    13    6    7 ar
    14    6    8 1
    15    7   32 1
    16    9   10 1
    17    9   24 am
    18   10   14 1
    19   10   11 2
    20   11   12 1
    21   12   13 2
    22   12   15 1
    23   13   14 1
    24   13   33 1
    25   15   16 1
    26   15   34 1
    27   15   35 1
    28   16   17 1
    29   17   22 ar
    30   17   18 ar
    31   18   19 ar
    32   18   36 1
    33   19   20 ar
    34   19   37 1
    35   20   21 ar
    36   20   38 1
    37   21   22 ar
    38   21   39 1
    39   22   23 1
    40   24   25 2
    41   24   26 1
    42   26   40 1
    43   26   41 1
    44   26   42 1
    45   27   43 1
    46   27   44 1
    47   27   45 1
@<TRIPOS>MOLECULE
ZINC44712529
   67    70     0     0     0
SMALL
USER_CHARGES

@<TRIPOS>ATOM
      1 C1          1.2802    1.9993    0.2949 C.3       1 <0>        -0.1593
      2 C2          1.3223    0.4755    0.4255 C.3       1 <0>        -0.0155
      3 C3         -0.0367    0.0389    0.9135 C.3       1 <0>        -0.1237
      4 C4          0.0279   -1.2409    1.7462 C.3       1 <0>        -0.1671
      5 C5          1.0109   -1.0024    2.8768 C.2       1 <0>         0.3863
      6 O1          0.7200   -1.2125    4.0358 O.2       1 <0>        -0.4557
      7 C6          2.3358   -0.5015    2.4862 C.2       1 <0>        -0.2321
      8 C7          2.4692    0.1496    1.3342 C.2       1 <0>        -0.0288
      9 C8          3.8606    0.5707    0.8928 C.3       1 <0>        -0.0978
     10 C9          4.0892    0.0413   -0.5294 C.3       1 <0>        -0.1082
     11 C10         2.9628    0.5242   -1.4390 C.3       1 <0>        -0.0799
     12 H1          2.9063    1.6120   -1.4003 H         1 <0>         0.0955
     13 C11         1.6258   -0.0758   -0.9654 C.3       1 <0>        -0.1218
     14 H2          1.7151   -1.1608   -0.9126 H         1 <0>         0.1097
     15 C12         0.5265    0.2806   -1.9325 C.2       1 <0>         0.3705
     16 O2         -0.5291    0.7044   -1.5268 O.2       1 <0>        -0.4358
     17 C13         0.7602    0.1013   -3.4261 C.3       1 <0>        -0.1589
     18 C14         2.0882    0.7718   -3.7390 C.3       1 <0>        -0.0488
     19 C15         3.1762    0.0809   -2.8718 C.3       1 <0>        -0.0828
     20 H3          3.0959   -1.0034   -2.9493 H         1 <0>         0.0896
     21 C16         4.4669    0.5861   -3.5294 C.3       1 <0>        -0.1129
     22 C17         4.1410    0.5131   -5.0450 C.3       1 <0>        -0.1165
     23 C18         2.6012    0.5853   -5.1649 C.3       1 <0>        -0.1220
     24 H4          2.2156   -0.3432   -5.5860 H         1 <0>         0.1063
     25 C19         2.1952    1.7561   -6.0224 C.2       1 <0>         0.3666
     26 O3          2.9392    2.6989   -6.1487 O.2       1 <0>        -0.4179
     27 C20         0.8606    1.7505   -6.7224 C.3       1 <0>         0.0097
     28 O4          0.7084    2.9602   -7.4676 O.3       1 <0>        -0.3311
     29 C21        -0.4348    3.1134   -8.1541 C.2       1 <0>         0.4692
     30 O5         -1.2784    2.2489   -8.1233 O.2       1 <0>        -0.5015
     31 C22        -0.6662    4.3636   -8.9632 C.3       1 <0>        -0.0546
     32 C23        -2.0353    4.2858   -9.6417 C.3       1 <0>        -0.1355
     33 C24        -0.6227    5.5834   -8.0407 C.3       1 <0>        -0.1444
     34 C25         0.4245    4.4907  -10.0285 C.3       1 <0>        -0.1442
     35 C26         2.0092    2.2629   -3.4053 C.3       1 <0>        -0.1612
     36 H5          2.2609    2.3652   -0.0090 H         1 <0>         0.0647
     37 H6          0.5397    2.2794   -0.4544 H         1 <0>         0.0709
     38 H7          1.0098    2.4389    1.2550 H         1 <0>         0.0613
     39 H8         -0.4658    0.8349    1.5220 H         1 <0>         0.0713
     40 H9         -0.6828   -0.1322    0.0525 H         1 <0>         0.1120
     41 H10        -0.9573   -1.4669    2.1542 H         1 <0>         0.0923
     42 H11         0.3712   -2.0689    1.1260 H         1 <0>         0.0954
     43 H12         3.1928   -0.6705    3.1213 H         1 <0>         0.1372
     44 H13         3.9351    1.6581    0.8973 H         1 <0>         0.0841
     45 H14         4.6048    0.1472    1.5674 H         1 <0>         0.0815
     46 H15         5.0434    0.4103   -0.9055 H         1 <0>         0.0789
     47 H16         4.1018   -1.0485   -0.5138 H         1 <0>         0.0708
     48 H17         0.8102   -0.9595   -3.6717 H         1 <0>         0.1077
     49 H18        -0.0414    0.5789   -3.9896 H         1 <0>         0.0929
     50 H19         4.6757    1.6129   -3.2294 H         1 <0>         0.0741
     51 H20         5.3051   -0.0661   -3.2838 H         1 <0>         0.0754
     52 H21         4.5940    1.3565   -5.5661 H         1 <0>         0.0838
     53 H22         4.5076   -0.4251   -5.4616 H         1 <0>         0.0758
     54 H23         0.8091    0.8978   -7.3994 H         1 <0>         0.1027
     55 H24         0.0630    1.6762   -5.9833 H         1 <0>         0.1009
     56 H25        -2.8123    4.1952   -8.8827 H         1 <0>         0.0654
     57 H26        -2.2026    5.1900  -10.2269 H         1 <0>         0.0733
     58 H27        -2.0662    3.4168  -10.2989 H         1 <0>         0.0654
     59 H28         0.3526    5.6388   -7.5573 H         1 <0>         0.0716
     60 H29        -0.7901    6.4876   -8.6259 H         1 <0>         0.0754
     61 H30        -1.3998    5.4928   -7.2817 H         1 <0>         0.0611
     62 H31         0.3936    3.6217  -10.6857 H         1 <0>         0.0612
     63 H32         0.2572    5.3949  -10.6137 H         1 <0>         0.0754
     64 H33         1.3999    4.5461   -9.5451 H         1 <0>         0.0717
     65 H34         1.6725    2.3876   -2.3761 H         1 <0>         0.0667
     66 H35         2.9945    2.7141   -3.5225 H         1 <0>         0.0762
     67 H36         1.3043    2.7493   -4.0796 H         1 <0>         0.0573
@<TRIPOS>BOND
     1    1    2 1
     2    1   36 1
     3    1   37 1
     4    1   38 1
     5    2    8 1
     6    2   13 1
     7    2    3 1
     8    3    4 1
     9    3   39 1
    10    3   40 1
    11    4    5 1
    12    4   41 1
    13    4   42 1
    14    5    6 2
    15    5    7 1
    16    7    8 2
    17    7   43 1
    18    8    9 1
    19    9   10 1
    20    9   44 1
    21    9   45 1
    22   10   11 1
    23   10   46 1
    24   10   47 1
    25   11   12 1
    26   11   19 1
    27   11   13 1
    28   13   14 1
    29   13   15 1
    30   15   16 2
    31   15   17 1
    32   17   18 1
    33   17   48 1
    34   17   49 1
    35   18   23 1
    36   18   19 1
    37   18   35 1
    38   19   20 1
    39   19   21 1
    40   21   22 1
    41   21   50 1
    42   21   51 1
    43   22   23 1
    44   22   52 1
    45   22   53 1
    46   23   24 1
    47   23   25 1
    48   25   26 2
    49   25   27 1
    50   27   28 1
    51   27   54 1
    52   27   55 1
    53   28   29 1
    54   29   30 2
    55   29   31 1
    56   31   32 1
    57   31   33 1
    58   31   34 1
    59   32   56 1
    60   32   57 1
    61   32   58 1
    62   33   59 1
    63   33   60 1
    64   33   61 1
    65   34   62 1
    66   34   63 1
    67   34   64 1
    68   35   65 1
    69   35   66 1
    70   35   67 1
@<TRIPOS>MOLECULE
ZINC35143114
   55    59     0     0     0
SMALL
USER_CHARGES

@<TRIPOS>ATOM
      1 C1         -0.0179    1.5028    0.0095 C.3       1 <0>        -0.1208
      2 C2          0.0026   -0.0041    0.0012 C.ar      1 <0>        -0.0675
      3 C3          1.0725   -0.6765   -0.5603 C.ar      1 <0>        -0.1070
      4 C4          1.0944   -2.0574   -0.5690 C.ar      1 <0>        -0.0918
      5 C5          0.0405   -2.7706   -0.0132 C.ar      1 <0>         0.0965
      6 C6         -1.0324   -2.0924    0.5498 C.ar      1 <0>        -0.1045
      7 C7         -1.0460   -0.7114    0.5602 C.ar      1 <0>        -0.1070
      8 N1          0.0595   -4.1713   -0.0209 N.am      1 <0>        -0.4805
      9 C8         -0.0323   -4.8601   -1.1792 C.2       1 <0>         0.5231
     10 O1         -0.3134   -4.2665   -2.1985 O.2       1 <0>        -0.4769
     11 C9          0.2055   -6.3433   -1.2375 C.3       1 <0>        -0.1325
     12 C10        -0.3665   -7.0431   -0.0005 C.3       1 <0>         0.0384
     13 H1          0.0631   -8.0409    0.0889 H         1 <0>         0.1160
     14 C11        -0.0066   -6.2225    1.2161 C.2       1 <0>        -0.2843
     15 C12         0.1775   -4.8803    1.1462 C.2       1 <0>         0.1589
     16 C13         0.5084   -4.4176    2.5349 C.3       1 <0>         0.0836
     17 O2          0.5026   -5.6077    3.3392 O.3       1 <0>        -0.3149
     18 C14         0.1934   -6.6510    2.5369 C.2       1 <0>         0.5244
     19 O3          0.1125   -7.8071    2.9075 O.2       1 <0>        -0.4535
     20 C15        -1.8652   -7.1441   -0.1212 C.ar      1 <0>        -0.1230
     21 C16        -2.6270   -5.9964   -0.2401 C.ar      1 <0>        -0.0739
     22 C17        -4.0011   -6.0863   -0.3505 C.ar      1 <0>        -0.1462
     23 C18        -4.6165   -7.3296   -0.3424 C.ar      1 <0>         0.1357
     24 C19        -3.8499   -8.4798   -0.2235 C.ar      1 <0>        -0.2053
     25 C20        -2.4757   -8.3847   -0.1186 C.ar      1 <0>        -0.0582
     26 O4         -5.9682   -7.4207   -0.4504 O.3       1 <0>        -0.3079
     27 C21        -6.5333   -8.7331   -0.4349 C.3       1 <0>         0.1016
     28 C22        -8.0316   -8.6365   -0.5640 C.ar      1 <0>        -0.0991
     29 C23        -8.8175   -8.5297    0.5682 C.ar      1 <0>        -0.0950
     30 C24       -10.1919   -8.4410    0.4498 C.ar      1 <0>        -0.1230
     31 C25       -10.7804   -8.4587   -0.8009 C.ar      1 <0>        -0.1085
     32 C26        -9.9945   -8.5646   -1.9332 C.ar      1 <0>        -0.1231
     33 C27        -8.6198   -8.6489   -1.8149 C.ar      1 <0>        -0.0950
     34 H2          0.4598    1.8676    0.9188 H         1 <0>         0.0768
     35 H3          0.5215    1.8783   -0.8601 H         1 <0>         0.0711
     36 H4         -1.0497    1.8523   -0.0242 H         1 <0>         0.0712
     37 H5          1.8917   -0.1213   -0.9927 H         1 <0>         0.1336
     38 H6          1.9301   -2.5821   -1.0080 H         1 <0>         0.1273
     39 H7         -1.8536   -2.6443    0.9828 H         1 <0>         0.1289
     40 H8         -1.8783   -0.1834    1.0016 H         1 <0>         0.1342
     41 H9         -0.2727   -6.7473   -2.1299 H         1 <0>         0.1228
     42 H10         1.2777   -6.5317   -1.2911 H         1 <0>         0.1164
     43 H11         1.4942   -3.9530    2.5540 H         1 <0>         0.1308
     44 H12        -0.2475   -3.7173    2.8904 H         1 <0>         0.1279
     45 H13        -2.1474   -5.0288   -0.2464 H         1 <0>         0.1153
     46 H14        -4.5957   -5.1895   -0.4426 H         1 <0>         0.1302
     47 H15        -4.3267   -9.4488   -0.2169 H         1 <0>         0.1314
     48 H16        -1.8781   -9.2800   -0.0304 H         1 <0>         0.1315
     49 H17        -6.1333   -9.3108   -1.2682 H         1 <0>         0.0728
     50 H18        -6.2805   -9.2264    0.5037 H         1 <0>         0.0730
     51 H19        -8.3577   -8.5159    1.5454 H         1 <0>         0.1243
     52 H20       -10.8059   -8.3583    1.3344 H         1 <0>         0.1261
     53 H21       -11.8542   -8.3901   -0.8934 H         1 <0>         0.1252
     54 H22       -10.4543   -8.5787   -2.9103 H         1 <0>         0.1261
     55 H23        -8.0055   -8.7279   -2.6997 H         1 <0>         0.1242
@<TRIPOS>BOND
     1    1    2 1
     2    1   34 1
     3    1   35 1
     4    1   36 1
     5    2    7 ar
     6    2    3 ar
     7    3    4 ar
     8    3   37 1
     9    4    5 ar
    10    4   38 1
    11    5    6 ar
    12    5    8 1
    13    6    7 ar
    14    6   39 1
    15    7   40 1
    16    8   15 1
    17    8    9 am
    18    9   10 2
    19    9   11 1
    20   11   12 1
    21   11   41 1
    22   11   42 1
    23   12   13 1
    24   12   14 1
    25   12   20 1
    26   14   18 1
    27   14   15 2
    28   15   16 1
    29   16   17 1
    30   16   43 1
    31   16   44 1
    32   17   18 1
    33   18   19 2
    34   20   25 ar
    35   20   21 ar
    36   21   22 ar
    37   21   45 1
    38   22   23 ar
    39   22   46 1
    40   23   24 ar
    41   23   26 1
    42   24   25 ar
    43   24   47 1
    44   25   48 1
    45   26   27 1
    46   27   28 1
    47   27   49 1
    48   27   50 1
    49   28   33 ar
    50   28   29 ar
    51   29   30 ar
    52   29   51 1
    53   30   31 ar
    54   30   52 1
    55   31   32 ar
    56   31   53 1
    57   32   33 ar
    58   32   54 1
    59   33   55 1
@<TRIPOS>MOLECULE
ZINC12567209
   52    56     0     0     0
SMALL
USER_CHARGES
(E)-1-[(2S)-2-(1,3-benzothiazol-2-yl)pyrrolidin-1-yl]-3-(1-benzylpyrazol-4-yl)prop-2-en-1-one
@<TRIPOS>ATOM
      1 C1          7.5851   10.2709   -8.4830 C.ar      1 <0>        -0.1066
      2 C2          8.8028    9.6594   -8.2499 C.ar      1 <0>        -0.1227
      3 C3          8.8899    8.2800   -8.2245 C.ar      1 <0>        -0.0817
      4 C4          7.7594    7.5121   -8.4326 C.ar      1 <0>        -0.1158
      5 C5          6.5428    8.1236   -8.6712 C.ar      1 <0>        -0.0995
      6 C6          6.4547    9.5030   -8.6910 C.ar      1 <0>        -0.1236
      7 C7          7.8545    6.0084   -8.4053 C.3       1 <0>         0.1714
      8 N1          7.6297    5.5296   -7.0391 N.pl3     1 <0>        -0.3549
      9 C8          6.7087    4.6247   -6.6659 C.2       1 <0>         0.0930
     10 C9          6.8268    4.4555   -5.2985 C.2       1 <0>        -0.2410
     11 C10         7.8654    5.3103   -4.8614 C.2       1 <0>         0.0754
     12 N2          8.3372    5.9380   -5.9031 N.2       1 <0>        -0.2867
     13 C11         6.0204    3.5605   -4.4568 C.2       1 <0>         0.0556
     14 C12         6.2478    3.4973   -3.1271 C.2       1 <0>        -0.2502
     15 C13         5.4696    2.6335   -2.3148 C.2       1 <0>         0.5728
     16 O1          4.5966    1.9491   -2.8162 O.2       1 <0>        -0.5377
     17 N3          5.6966    2.5705   -0.9878 N.am      1 <0>        -0.6172
     18 C14         6.7163    3.3410   -0.2530 C.3       1 <0>         0.0966
     19 C15         7.0005    2.5080    1.0218 C.3       1 <0>        -0.1310
     20 C16         5.5874    1.9635    1.3596 C.3       1 <0>        -0.1233
     21 C17         4.9678    1.7225   -0.0332 C.3       1 <0>         0.2241
     22 H1          5.0741    0.6742   -0.3123 H         1 <0>         0.1135
     23 C18         3.5099    2.1035   -0.0184 C.2       1 <0>         0.1419
     24 N4          2.4692    1.3189   -0.0133 N.2       1 <0>        -0.4972
     25 C19         1.2054    1.7913    0.0002 C.ar      1 <0>         0.0796
     26 C20        -0.0126    1.0758    0.0080 C.ar      1 <0>        -0.0589
     27 C21        -1.2039    1.7327    0.0172 C.ar      1 <0>        -0.1118
     28 C22        -1.2708    3.1191    0.0294 C.ar      1 <0>        -0.0952
     29 C23        -0.1012    3.8554    0.0225 C.ar      1 <0>        -0.0675
     30 C24         1.1068    3.2014    0.0082 C.ar      1 <0>        -0.1522
     31 S1          2.8123    3.6934   -0.0043 S.3       1 <0>         0.0324
     32 H2          7.5170   11.3486   -8.5021 H         1 <0>         0.1246
     33 H3          9.6860   10.2593   -8.0874 H         1 <0>         0.1256
     34 H4          9.8412    7.8023   -8.0424 H         1 <0>         0.1249
     35 H5          5.6605    7.5236   -8.8382 H         1 <0>         0.1212
     36 H6          5.5033    9.9807   -8.8727 H         1 <0>         0.1248
     37 H7          8.8453    5.7008   -8.7397 H         1 <0>         0.0989
     38 H8          7.0996    5.5846   -9.0676 H         1 <0>         0.1087
     39 H9          6.0063    4.1222   -7.3143 H         1 <0>         0.1837
     40 H10         8.2094    5.4218   -3.8438 H         1 <0>         0.1872
     41 H11         5.2459    2.9533   -4.9016 H         1 <0>         0.1332
     42 H12         7.0223    4.1045   -2.6823 H         1 <0>         0.1255
     43 H13         7.6219    3.4393   -0.8516 H         1 <0>         0.0875
     44 H14         6.3290    4.3240    0.0148 H         1 <0>         0.0739
     45 H15         7.6927    1.6931    0.8098 H         1 <0>         0.0844
     46 H16         7.3787    3.1400    1.8253 H         1 <0>         0.0931
     47 H17         5.0115    2.7038    1.9149 H         1 <0>         0.0834
     48 H18         5.6571    1.0298    1.9175 H         1 <0>         0.0967
     49 H19         0.0021   -0.0041    0.0020 H         1 <0>         0.1331
     50 H20        -2.1203    1.1612    0.0188 H         1 <0>         0.1350
     51 H21        -2.2286    3.6181    0.0406 H         1 <0>         0.1392
     52 H22        -0.1366    4.9348    0.0286 H         1 <0>         0.1336
@<TRIPOS>BOND
     1    1    6 ar
     2    1    2 ar
     3    1   32 1
     4    2    3 ar
     5    2   33 1
     6    3    4 ar
     7    3   34 1
     8    4    5 ar
     9    4    7 1
    10    5    6 ar
    11    5   35 1
    12    6   36 1
    13    7    8 1
    14    7   37 1
    15    7   38 1
    16    8   12 1
    17    8    9 1
    18    9   10 2
    19    9   39 1
    20   10   11 1
    21   10   13 1
    22   11   12 2
    23   11   40 1
    24   13   14 2
    25   13   41 1
    26   14   15 1
    27   14   42 1
    28   15   16 2
    29   15   17 am
    30   17   21 1
    31   17   18 1
    32   18   19 1
    33   18   43 1
    34   18   44 1
    35   19   20 1
    36   19   45 1
    37   19   46 1
    38   20   21 1
    39   20   47 1
    40   20   48 1
    41   21   22 1
    42   21   23 1
    43   23   31 1
    44   23   24 2
    45   24   25 1
    46   25   30 ar
    47   25   26 ar
    48   26   27 ar
    49   26   49 1
    50   27   28 ar
    51   27   50 1
    52   28   29 ar
    53   28   51 1
    54   29   30 ar
    55   29   52 1
    56   30   31 1
@<TRIPOS>MOLECULE
ZINC16744523
   61    65     0     0     0
SMALL
USER_CHARGES
[(1R)-2-(1-acetylindolin-5-yl)-1-methyl-2-oxo-ethyl] 2-(1-adamantyl)acetate
@<TRIPOS>ATOM
      1 C1         -0.7464    1.5867   -1.2286 C.3       1 <0>        -0.1678
      2 C2         -0.0082    1.0813    0.0127 C.3       1 <0>         0.0598
      3 H1          0.0052    0.0814    0.0085 H         1 <0>         0.0992
      4 C3         -0.7153    1.5690    1.2509 C.2       1 <0>         0.4030
      5 O1         -0.2904    2.5331    1.8520 O.2       1 <0>        -0.4278
      6 C4         -1.9187    0.8770    1.7299 C.ar      1 <0>        -0.1939
      7 C5         -2.4176   -0.2331    1.0370 C.ar      1 <0>        -0.0452
      8 C6         -3.5314   -0.8772    1.4860 C.ar      1 <0>        -0.1434
      9 C7         -4.1978   -0.4339    2.6348 C.ar      1 <0>         0.1847
     10 C8         -3.7078    0.6706    3.3210 C.ar      1 <0>        -0.1530
     11 C9         -2.5802    1.3253    2.8797 C.ar      1 <0>        -0.0097
     12 C10        -4.6043    0.9334    4.5103 C.3       1 <0>        -0.0855
     13 C11        -5.6811   -0.1610    4.4293 C.3       1 <0>         0.0978
     14 N1         -5.3409   -0.9484    3.2417 N.am      1 <0>        -0.5569
     15 C12        -6.0337   -2.0170    2.8005 C.2       1 <0>         0.5215
     16 O2         -5.7266   -2.5493    1.7550 O.2       1 <0>        -0.5137
     17 C13        -7.1899   -2.5505    3.6065 C.3       1 <0>        -0.1706
     18 O3          1.3541    1.5837    0.0037 O.3       1 <0>        -0.3375
     19 C14         2.2792    0.8252   -0.6050 C.2       1 <0>         0.4621
     20 O4          1.9613   -0.2238   -1.1134 O.2       1 <0>        -0.4934
     21 C15         3.7145    1.2820   -0.6542 C.3       1 <0>        -0.1066
     22 C16         4.5551    0.2429   -1.3990 C.3       1 <0>        -0.0395
     23 C17         4.4717   -1.0990   -0.6687 C.3       1 <0>        -0.1160
     24 C18         5.3123   -2.1380   -1.4134 C.3       1 <0>        -0.0829
     25 C19         6.7695   -1.6743   -1.4634 C.3       1 <0>        -0.1097
     26 C20         6.8529   -0.3325   -2.1937 C.3       1 <0>        -0.0840
     27 C21         6.0123    0.7066   -1.4489 C.3       1 <0>        -0.1021
     28 C22         6.3197   -0.4934   -3.6187 C.3       1 <0>        -0.1097
     29 C23         4.8626   -0.9571   -3.5687 C.3       1 <0>        -0.0829
     30 C24         4.7792   -2.2989   -2.8385 C.3       1 <0>        -0.1065
     31 C25         4.0220    0.0820   -2.8240 C.3       1 <0>        -0.1154
     32 H2         -0.2350    1.2340   -2.1242 H         1 <0>         0.0782
     33 H3         -1.7691    1.2096   -1.2218 H         1 <0>         0.0847
     34 H4         -0.7610    2.6766   -1.2240 H         1 <0>         0.0751
     35 H5         -1.9157   -0.5824    0.1468 H         1 <0>         0.1377
     36 H6         -3.9066   -1.7350    0.9476 H         1 <0>         0.1475
     37 H7         -2.2066    2.1831    3.4192 H         1 <0>         0.1406
     38 H8         -4.0404    0.8444    5.4388 H         1 <0>         0.0968
     39 H9         -5.0589    1.9210    4.4332 H         1 <0>         0.0971
     40 H10        -6.6680    0.2875    4.3156 H         1 <0>         0.0901
     41 H11        -5.6521   -0.7885    5.3201 H         1 <0>         0.0904
     42 H12        -8.1204   -2.1205    3.2357 H         1 <0>         0.1023
     43 H13        -7.2284   -3.6358    3.5124 H         1 <0>         0.1022
     44 H14        -7.0574   -2.2811    4.6543 H         1 <0>         0.0845
     45 H15         3.7739    2.2379   -1.1745 H         1 <0>         0.1075
     46 H16         4.0943    1.3966    0.3610 H         1 <0>         0.1071
     47 H17         4.8515   -0.9844    0.3466 H         1 <0>         0.0556
     48 H18         3.4336   -1.4293   -0.6331 H         1 <0>         0.0870
     49 H19         5.2529   -3.0940   -0.8932 H         1 <0>         0.0674
     50 H20         7.3683   -2.4146   -1.9940 H         1 <0>         0.0608
     51 H21         7.1493   -1.5597   -0.4482 H         1 <0>         0.0605
     52 H22         7.8910   -0.0021   -2.2293 H         1 <0>         0.0700
     53 H23         6.0717    1.6626   -1.9692 H         1 <0>         0.0645
     54 H24         6.3921    0.8212   -0.4337 H         1 <0>         0.0644
     55 H25         6.3792    0.4626   -4.1390 H         1 <0>         0.0606
     56 H26         6.9186   -1.2336   -4.1493 H         1 <0>         0.0608
     57 H27         4.4827   -1.0717   -4.5840 H         1 <0>         0.0676
     58 H28         5.3780   -3.0392   -3.3690 H         1 <0>         0.0585
     59 H29         3.7410   -2.6293   -2.8029 H         1 <0>         0.0632
     60 H30         2.9838   -0.2484   -2.7884 H         1 <0>         0.0872
     61 H31         4.0814    1.0380   -3.3443 H         1 <0>         0.0557
@<TRIPOS>BOND
     1    1    2 1
     2    1   32 1
     3    1   33 1
     4    1   34 1
     5    2    3 1
     6    2    4 1
     7    2   18 1
     8    4    5 2
     9    4    6 1
    10    6   11 ar
    11    6    7 ar
    12    7    8 ar
    13    7   35 1
    14    8    9 ar
    15    8   36 1
    16    9   14 1
    17    9   10 ar
    18   10   11 ar
    19   10   12 1
    20   11   37 1
    21   12   13 1
    22   12   38 1
    23   12   39 1
    24   13   14 1
    25   13   40 1
    26   13   41 1
    27   14   15 am
    28   15   16 2
    29   15   17 1
    30   17   42 1
    31   17   43 1
    32   17   44 1
    33   18   19 1
    34   19   20 2
    35   19   21 1
    36   21   22 1
    37   21   45 1
    38   21   46 1
    39   22   27 1
    40   22   31 1
    41   22   23 1
    42   23   24 1
    43   23   47 1
    44   23   48 1
    45   24   30 1
    46   24   25 1
    47   24   49 1
    48   25   26 1
    49   25   50 1
    50   25   51 1
    51   26   27 1
    52   26   28 1
    53   26   52 1
    54   27   53 1
    55   27   54 1
    56   28   29 1
    57   28   55 1
    58   28   56 1
    59   29   30 1
    60   29   31 1
    61   29   57 1
    62   30   58 1
    63   30   59 1
    64   31   60 1
    65   31   61 1
@<TRIPOS>MOLECULE
ZINC29744260
   36    38     0     0     0
SMALL
USER_CHARGES
(2S)-1-(4-bromophenyl)-2-[1-(2-thienylmethyl)tetrazol-5-yl]sulfanyl-propan-1-one
@<TRIPOS>ATOM
      1 C1          1.6404    2.3563   -1.4380 C.3       1 <0>        -0.1526
      2 C2          1.2803    1.9796    0.0005 C.3       1 <0>        -0.1499
      3 H1          1.0239    2.9315    0.4886 H         1 <0>         0.1398
      4 C3         -0.0144    1.2084    0.0087 C.2       1 <0>         0.4163
      5 O1          0.0021   -0.0041    0.0020 O.2       1 <0>        -0.4258
      6 C4         -1.2982    1.9266    0.0187 C.ar      1 <0>        -0.1509
      7 C5         -1.3211    3.3252    0.0322 C.ar      1 <0>        -0.0673
      8 C6         -2.5278    3.9912    0.0347 C.ar      1 <0>        -0.1005
      9 C7         -3.7159    3.2790    0.0369 C.ar      1 <0>        -0.0582
     10 C8         -3.7011    1.8938    0.0298 C.ar      1 <0>        -0.1013
     11 C9         -2.5021    1.2141    0.0205 C.ar      1 <0>        -0.0487
     12 Br1        -5.3662    4.2021    0.0491 Br        1 <0>        -0.0341
     13 S1          2.5969    0.9558    0.7036 S.3       1 <0>         0.1113
     14 C10         3.9187    2.1208    0.7127 C.2       1 <0>         0.2074
     15 N1          3.8650    3.3670    0.2951 N.2       1 <0>        -0.3318
     16 N2          5.0038    3.9413    0.4456 N.2       1 <0>        -0.0285
     17 N3          5.8571    3.1184    0.9520 N.2       1 <0>        -0.0694
     18 N4          5.1826    1.9002    1.1455 N.pl3     1 <0>        -0.3592
     19 C11         5.7296    0.6585    1.6978 C.3       1 <0>         0.2079
     20 C12         6.2918   -0.1831    0.5813 C.2       1 <0>        -0.2094
     21 C13         7.5468   -0.1937    0.0691 C.2       1 <0>        -0.1066
     22 C14         7.8408   -1.0609   -0.9664 C.2       1 <0>        -0.1689
     23 C15         6.8655   -1.8751   -1.4390 C.2       1 <0>        -0.1523
     24 S2          5.4799   -1.4304   -0.4047 S.3       1 <0>         0.0760
     25 H2          2.5854    2.9192   -1.4440 H         1 <0>         0.0938
     26 H3          0.8402    2.9785   -1.8653 H         1 <0>         0.0803
     27 H4          1.7544    1.4420   -2.0389 H         1 <0>         0.0731
     28 H5         -0.3955    3.8818    0.0353 H         1 <0>         0.1452
     29 H6         -2.5471    5.0711    0.0396 H         1 <0>         0.1442
     30 H7         -4.6313    1.3451    0.0313 H         1 <0>         0.1437
     31 H8         -2.4920    0.1342    0.0143 H         1 <0>         0.1468
     32 H9          6.5286    0.8970    2.4152 H         1 <0>         0.1371
     33 H10         4.9310    0.1019    2.2101 H         1 <0>         0.1229
     34 H11         8.3055    0.4657    0.4639 H         1 <0>         0.1384
     35 H12         8.8329   -1.0896   -1.3922 H         1 <0>         0.1398
     36 H13         6.9150   -2.6060   -2.2325 H         1 <0>         0.1911
@<TRIPOS>BOND
     1    1    2 1
     2    1   25 1
     3    1   26 1
     4    1   27 1
     5    2    3 1
     6    2    4 1
     7    2   13 1
     8    4    5 2
     9    4    6 1
    10    6   11 ar
    11    6    7 ar
    12    7    8 ar
    13    7   28 1
    14    8    9 ar
    15    8   29 1
    16    9   10 ar
    17    9   12 1
    18   10   11 ar
    19   10   30 1
    20   11   31 1
    21   13   14 1
    22   14   18 1
    23   14   15 2
    24   15   16 1
    25   16   17 2
    26   17   18 1
    27   18   19 1
    28   19   20 1
    29   19   32 1
    30   19   33 1
    31   20   24 1
    32   20   21 2
    33   21   22 1
    34   21   34 1
    35   22   23 2
    36   22   35 1
    37   23   24 1
    38   23   36 1
@<TRIPOS>MOLECULE
ZINC45651603
   44    46     0     0     0
SMALL
USER_CHARGES

@<TRIPOS>ATOM
      1 C1         -0.0833    1.5284   -0.0181 C.3       1 <0>        -0.1634
      2 C2          0.0035    0.0010    0.0043 C.3       1 <0>         0.1769
      3 H1          0.5812   -0.3174    0.8721 H         1 <0>         0.1175
      4 C3          0.6786   -0.4823   -1.2534 C.ar      1 <0>        -0.0947
      5 C4          0.7997    0.3621   -2.3411 C.ar      1 <0>        -0.0991
      6 C5          1.4188   -0.0810   -3.4948 C.ar      1 <0>        -0.1168
      7 C6          1.9174   -1.3689   -3.5615 C.ar      1 <0>        -0.1021
      8 C7          1.7969   -2.2139   -2.4747 C.ar      1 <0>        -0.1127
      9 C8          1.1822   -1.7690   -1.3175 C.ar      1 <0>        -0.0243
     10 Cl1         1.0364   -2.8278    0.0505 Cl        1 <0>        -0.0506
     11 N1         -1.3460   -0.5638    0.0822 N.am      1 <0>        -0.6030
     12 C9         -2.2813   -0.3822   -1.0307 C.3       1 <0>         0.0748
     13 C10        -1.7270   -1.2504    1.1775 C.2       1 <0>         0.5360
     14 O1         -0.9527   -1.4007    2.0988 O.2       1 <0>        -0.5055
     15 C11        -3.1152   -1.8313    1.2576 C.3       1 <0>        -0.1330
     16 S1         -3.3210   -2.6898    2.8423 S.3       1 <0>        -0.1399
     17 C12        -5.0199   -3.3227    2.7812 C.3       1 <0>        -0.0658
     18 C13        -5.3247   -4.0673    4.0554 C.2       1 <0>         0.2262
     19 C14        -6.1334   -3.5052    5.0202 C.2       1 <0>        -0.2817
     20 C15        -6.4046   -4.2101    6.1931 C.2       1 <0>         0.5286
     21 O2         -7.1204   -3.7172    7.0507 O.2       1 <0>        -0.5170
     22 N2         -5.8686   -5.4530    6.3810 N.am      1 <0>        -0.4789
     23 C16        -6.0422   -6.2663    7.4750 C.2       1 <0>         0.0369
     24 C17        -5.4628   -7.4647    7.5402 C.2       1 <0>        -0.1762
     25 S2         -4.5883   -7.5335    5.9845 S.3       1 <0>         0.1469
     26 C18        -5.0774   -5.9352    5.3726 C.2       1 <0>         0.3338
     27 N3         -4.8227   -5.2812    4.2668 N.2       1 <0>        -0.4861
     28 H2          0.9208    1.9486   -0.0760 H         1 <0>         0.0742
     29 H3         -0.6610    1.8468   -0.8858 H         1 <0>         0.0638
     30 H4         -0.5716    1.8779    0.8916 H         1 <0>         0.0672
     31 H5          0.4102    1.3681   -2.2897 H         1 <0>         0.1363
     32 H6          1.5129    0.5789   -4.3445 H         1 <0>         0.1305
     33 H7          2.4007   -1.7147   -4.4632 H         1 <0>         0.1326
     34 H8          2.1861   -3.2200   -2.5270 H         1 <0>         0.1340
     35 H9         -2.2394   -1.2521   -1.6861 H         1 <0>         0.0585
     36 H10        -3.2928   -0.2697   -0.6405 H         1 <0>         0.0718
     37 H11        -2.0076    0.5103   -1.5934 H         1 <0>         0.0778
     38 H12        -3.8496   -1.0295    1.1807 H         1 <0>         0.1128
     39 H13        -3.2613   -2.5374    0.4402 H         1 <0>         0.1128
     40 H14        -5.7143   -2.4896    2.6723 H         1 <0>         0.1101
     41 H15        -5.1260   -3.9975    1.9317 H         1 <0>         0.1120
     42 H16        -6.5551   -2.5225    4.8686 H         1 <0>         0.1675
     43 H17        -6.6580   -5.9286    8.2955 H         1 <0>         0.1878
     44 H18        -5.5093   -8.2017    8.3283 H         1 <0>         0.2237
@<TRIPOS>BOND
     1    1    2 1
     2    1   28 1
     3    1   29 1
     4    1   30 1
     5    2    3 1
     6    2    4 1
     7    2   11 1
     8    4    9 ar
     9    4    5 ar
    10    5    6 ar
    11    5   31 1
    12    6    7 ar
    13    6   32 1
    14    7    8 ar
    15    7   33 1
    16    8    9 ar
    17    8   34 1
    18    9   10 1
    19   11   12 1
    20   11   13 am
    21   12   35 1
    22   12   36 1
    23   12   37 1
    24   13   14 2
    25   13   15 1
    26   15   16 1
    27   15   38 1
    28   15   39 1
    29   16   17 1
    30   17   18 1
    31   17   40 1
    32   17   41 1
    33   18   27 1
    34   18   19 2
    35   19   20 1
    36   19   42 1
    37   20   21 2
    38   20   22 am
    39   22   26 1
    40   22   23 1
    41   23   24 2
    42   23   43 1
    43   24   25 1
    44   24   44 1
    45   25   26 1
    46   26   27 2
@<TRIPOS>MOLECULE
ZINC22920625
   60    64     0     0     0
SMALL
USER_CHARGES

@<TRIPOS>ATOM
      1 C1          6.5850    1.7369   -2.0413 C.ar      1 <0>        -0.1180
      2 C2          6.6403    1.5899   -0.6679 C.ar      1 <0>        -0.1206
      3 C3          5.7102    0.7992   -0.0195 C.ar      1 <0>        -0.1134
      4 C4          4.7246    0.1557   -0.7444 C.ar      1 <0>        -0.0769
      5 C5          4.6688    0.3035   -2.1177 C.ar      1 <0>        -0.0891
      6 C6          5.5997    1.0931   -2.7663 C.ar      1 <0>        -0.1235
      7 C7          3.7112   -0.7071   -0.0376 C.3       1 <0>         0.1684
      8 C8          2.3927    0.0195    0.0302 C.ar      1 <0>        -0.0766
      9 C9          1.6000    0.1198   -1.0979 C.ar      1 <0>        -0.0899
     10 C10         0.3906    0.7864   -1.0357 C.ar      1 <0>        -0.1236
     11 C11        -0.0264    1.3522    0.1546 C.ar      1 <0>        -0.1182
     12 C12         0.7658    1.2512    1.2828 C.ar      1 <0>        -0.1203
     13 C13         1.9733    0.5809    1.2218 C.ar      1 <0>        -0.1131
     14 N1          3.5394   -1.9654   -0.7759 N.3       1 <0>        -0.5273
     15 C14         2.5172   -2.8114   -0.1442 C.3       1 <0>         0.0586
     16 C15         2.3121   -4.0733   -0.9856 C.3       1 <0>         0.0654
     17 N2          3.5879   -4.7931   -1.1035 N.3       1 <0>        -0.5549
     18 C16         4.6101   -3.9471   -1.7352 C.3       1 <0>         0.0568
     19 C17         4.8152   -2.6852   -0.8938 C.3       1 <0>         0.0597
     20 C18         3.4161   -6.0514   -1.8419 C.3       1 <0>         0.2694
     21 N3          4.4683   -6.9935   -1.4526 N.am      1 <0>        -0.5823
     22 C19         5.6692   -7.0710   -2.0829 C.2       1 <0>         0.5430
     23 O1          6.1259   -6.2782   -2.8782 O.2       1 <0>        -0.4652
     24 C20         6.3161   -8.3328   -1.5982 C.3       1 <0>        -0.1315
     25 H1          5.9912   -9.1811   -2.2006 H         1 <0>         0.1261
     26 C21         7.8213   -8.3500   -1.4344 C.3       1 <0>        -0.0678
     27 C22         8.1612   -9.5799   -0.6189 C.2       1 <0>        -0.1548
     28 C23         7.3083  -10.2354    0.1090 C.2       1 <0>        -0.1532
     29 C24         5.8521   -9.8534    0.2721 C.3       1 <0>        -0.0695
     30 C25         5.7092   -8.4177   -0.1636 C.3       1 <0>        -0.1315
     31 H2          6.2597   -7.7740    0.5224 H         1 <0>         0.1257
     32 C26         4.3396   -7.8700   -0.4228 C.2       1 <0>         0.5526
     33 O2          3.3198   -8.1539    0.1678 O.2       1 <0>        -0.4636
     34 H3          7.3090    2.3583   -2.5474 H         1 <0>         0.1205
     35 H4          7.4103    2.0926   -0.1015 H         1 <0>         0.1214
     36 H5          5.7537    0.6837    1.0535 H         1 <0>         0.1181
     37 H6          3.8992   -0.1998   -2.6841 H         1 <0>         0.1273
     38 H7          5.5564    1.2082   -3.8392 H         1 <0>         0.1212
     39 H8          4.0593   -0.9231    0.9725 H         1 <0>         0.0565
     40 H9          1.9258   -0.3223   -2.0278 H         1 <0>         0.1276
     41 H10        -0.2284    0.8653   -1.9172 H         1 <0>         0.1211
     42 H11        -0.9710    1.8736    0.2029 H         1 <0>         0.1205
     43 H12         0.4402    1.6936    2.2127 H         1 <0>         0.1214
     44 H13         2.5905    0.4987    2.1042 H         1 <0>         0.1182
     45 H14         2.8447   -3.0912    0.8571 H         1 <0>         0.0434
     46 H15         1.5787   -2.2608   -0.0796 H         1 <0>         0.0872
     47 H16         1.5752   -4.7159   -0.5037 H         1 <0>         0.0840
     48 H17         1.9585   -3.7950   -1.9784 H         1 <0>         0.0493
     49 H18         5.5486   -4.4977   -1.7998 H         1 <0>         0.0877
     50 H19         4.2826   -3.6673   -2.7365 H         1 <0>         0.0477
     51 H20         5.5521   -2.0426   -1.3757 H         1 <0>         0.0851
     52 H21         5.1688   -2.9635    0.0989 H         1 <0>         0.0406
     53 H22         2.4410   -6.4792   -1.6089 H         1 <0>         0.1058
     54 H23         3.4809   -5.8563   -2.9123 H         1 <0>         0.0731
     55 H24         8.3014   -8.4068   -2.4113 H         1 <0>         0.0908
     56 H25         8.1489   -7.4529   -0.9091 H         1 <0>         0.0857
     57 H26         9.1805   -9.9359   -0.6445 H         1 <0>         0.1143
     58 H27         7.6612  -11.1116    0.6326 H         1 <0>         0.1146
     59 H28         5.2286  -10.4846   -0.3610 H         1 <0>         0.0847
     60 H29         5.5538   -9.9603    1.3150 H         1 <0>         0.0910
@<TRIPOS>BOND
     1    1    6 ar
     2    1    2 ar
     3    1   34 1
     4    2    3 ar
     5    2   35 1
     6    3    4 ar
     7    3   36 1
     8    4    5 ar
     9    4    7 1
    10    5    6 ar
    11    5   37 1
    12    6   38 1
    13    7    8 1
    14    7   14 1
    15    7   39 1
    16    8   13 ar
    17    8    9 ar
    18    9   10 ar
    19    9   40 1
    20   10   11 ar
    21   10   41 1
    22   11   12 ar
    23   11   42 1
    24   12   13 ar
    25   12   43 1
    26   13   44 1
    27   14   19 1
    28   14   15 1
    29   15   16 1
    30   15   45 1
    31   15   46 1
    32   16   17 1
    33   16   47 1
    34   16   48 1
    35   17   18 1
    36   17   20 1
    37   18   19 1
    38   18   49 1
    39   18   50 1
    40   19   51 1
    41   19   52 1
    42   20   21 1
    43   20   53 1
    44   20   54 1
    45   21   32 am
    46   21   22 am
    47   22   23 2
    48   22   24 1
    49   24   25 1
    50   24   30 1
    51   24   26 1
    52   26   27 1
    53   26   55 1
    54   26   56 1
    55   27   28 2
    56   27   57 1
    57   28   29 1
    58   28   58 1
    59   29   30 1
    60   29   59 1
    61   29   60 1
    62   30   31 1
    63   30   32 1
    64   32   33 2
@<TRIPOS>MOLECULE
ZINC42953136
   39    40     0     0     0
SMALL
USER_CHARGES

@<TRIPOS>ATOM
      1 C1         -1.7080   -1.1932    0.5675 C.3       1 <0>        -0.1841
      2 C2         -0.4945   -0.3025    0.2936 C.3       1 <0>         0.0286
      3 H1         -0.1357   -0.4789   -0.7204 H         1 <0>         0.1474
      4 C3          0.6164   -0.6329    1.2923 C.3       1 <0>         0.1100
      5 H2          1.5137   -0.0688    1.0375 H         1 <0>         0.0800
      6 C4          0.1683   -0.2628    2.6828 C.ar      1 <0>        -0.1248
      7 C5         -0.6642   -1.1107    3.3891 C.ar      1 <0>        -0.0780
      8 C6         -1.0751   -0.7719    4.6645 C.ar      1 <0>        -0.0880
      9 C7         -0.6531    0.4159    5.2342 C.ar      1 <0>        -0.0744
     10 C8          0.1800    1.2641    4.5271 C.ar      1 <0>        -0.0863
     11 C9          0.5946    0.9219    3.2537 C.ar      1 <0>        -0.1203
     12 Br1        -1.2154    0.8804    6.9789 Br        1 <0>        -0.0230
     13 N1          0.9107   -2.0711    1.2393 N.3       1 <0>        -0.5199
     14 C10         1.9053   -2.4428    2.2546 C.3       1 <0>         0.0180
     15 C11         1.3552   -2.4684   -0.1033 C.3       1 <0>         0.1287
     16 C12         1.2889   -3.9685   -0.2310 C.2       1 <0>        -0.0290
     17 C13         0.2297   -4.6750   -0.6650 C.2       1 <0>        -0.1784
     18 C14         0.6019   -6.0383   -0.6237 C.2       1 <0>        -0.2168
     19 C15         1.8663   -6.0834   -0.1669 C.2       1 <0>        -0.0218
     20 O1          2.2793   -4.8264    0.0638 O.3       1 <0>        -0.1762
     21 N2         -0.8796    1.1077    0.4383 N.4       1 <0>        -0.6346
     22 H3         -2.0668   -1.0167    1.5815 H         1 <0>         0.0870
     23 H4         -2.4995   -0.9578   -0.1441 H         1 <0>         0.0810
     24 H5         -1.4223   -2.2396    0.4601 H         1 <0>         0.1195
     25 H6         -0.9939   -2.0379    2.9441 H         1 <0>         0.1506
     26 H7         -1.7258   -1.4342    5.2162 H         1 <0>         0.1427
     27 H8          0.5097    2.1915    4.9715 H         1 <0>         0.1424
     28 H9          1.2483    1.5821    2.7031 H         1 <0>         0.1344
     29 H10         1.5208   -2.2010    3.2454 H         1 <0>         0.0807
     30 H11         2.1047   -3.5126    2.1933 H         1 <0>         0.0849
     31 H12         2.8283   -1.8905    2.0782 H         1 <0>         0.0391
     32 H13         0.7069   -2.0111   -0.8507 H         1 <0>         0.1022
     33 H14         2.3812   -2.1355   -0.2597 H         1 <0>         0.0652
     34 H15        -0.7226   -4.2772   -0.9834 H         1 <0>         0.1465
     35 H16        -0.0113   -6.8818   -0.9047 H         1 <0>         0.1521
     36 H17         2.4516   -6.9783   -0.0153 H         1 <0>         0.2067
     37 H18        -1.3009    1.2501    1.3440 H         1 <0>         0.4335
     38 H19        -0.0603    1.6905    0.3532 H         1 <0>         0.4338
     39 H20        -1.5420    1.3512   -0.2828 H         1 <0>         0.4403
@<TRIPOS>BOND
     1    1    2 1
     2    1   22 1
     3    1   23 1
     4    1   24 1
     5    2    3 1
     6    2    4 1
     7    2   21 1
     8    4    5 1
     9    4    6 1
    10    4   13 1
    11    6   11 ar
    12    6    7 ar
    13    7    8 ar
    14    7   25 1
    15    8    9 ar
    16    8   26 1
    17    9   10 ar
    18    9   12 1
    19   10   11 ar
    20   10   27 1
    21   11   28 1
    22   13   14 1
    23   13   15 1
    24   14   29 1
    25   14   30 1
    26   14   31 1
    27   15   16 1
    28   15   32 1
    29   15   33 1
    30   16   20 1
    31   16   17 2
    32   17   18 1
    33   17   34 1
    34   18   19 2
    35   18   35 1
    36   19   20 1
    37   19   36 1
    38   21   37 1
    39   21   38 1
    40   21   39 1
@<TRIPOS>MOLECULE
ZINC43238073
   35    36     0     0     0
SMALL
USER_CHARGES

@<TRIPOS>ATOM
      1 C1          0.0317    1.1654   -0.1323 C.3       1 <0>        -0.1876
      2 C2         -0.1211   -0.3490    0.0232 C.3       1 <0>         0.0538
      3 H1         -1.1720   -0.5942    0.1772 H         1 <0>         0.1513
      4 C3          0.6949   -0.8229    1.2275 C.3       1 <0>        -0.0302
      5 H2          1.7393   -0.5420    1.0920 H         1 <0>         0.1194
      6 C4          0.5893   -2.3214    1.3476 C.2       1 <0>        -0.3037
      7 C5         -0.5905   -3.0516    1.5244 C.2       1 <0>         0.0681
      8 N1         -0.2803   -4.3213    1.5838 N.2       1 <0>        -0.2687
      9 N2          1.1088   -4.4393    1.4463 N.pl3     1 <0>        -0.3533
     10 C6          1.6183   -3.1986    1.2975 C.2       1 <0>         0.0826
     11 C7          1.8728   -5.6893    1.4566 C.3       1 <0>         0.0881
     12 S1          0.0515   -0.0485    2.7365 S.3       1 <0>        -0.0418
     13 C8          1.2632   -0.4252    3.9589 C.ar      1 <0>        -0.0792
     14 C9          2.4529   -1.0431    3.5929 C.ar      1 <0>        -0.1233
     15 C10         3.4007   -1.3365    4.5532 C.ar      1 <0>        -0.0733
     16 C11         3.1669   -1.0159    5.8789 C.ar      1 <0>        -0.0885
     17 C12         1.9833   -0.4006    6.2466 C.ar      1 <0>        -0.0672
     18 C13         1.0337   -0.0998    5.2903 C.ar      1 <0>        -0.0874
     19 Br1         4.4675   -1.4201    7.1908 Br        1 <0>        -0.0313
     20 N3          0.3648   -1.0174   -1.1912 N.4       1 <0>        -0.6305
     21 H3          1.0902    1.4203   -0.1850 H         1 <0>         0.0870
     22 H4         -0.4659    1.4888   -1.0466 H         1 <0>         0.0896
     23 H5         -0.4203    1.6660    0.7240 H         1 <0>         0.1166
     24 H6         -1.5857   -2.6388    1.5991 H         1 <0>         0.1909
     25 H7          2.6610   -2.9501    1.1648 H         1 <0>         0.1791
     26 H8          1.9555   -6.0729    0.4396 H         1 <0>         0.0872
     27 H9          2.8694   -5.5028    1.8567 H         1 <0>         0.0963
     28 H10         1.3619   -6.4223    2.0809 H         1 <0>         0.1009
     29 H11         2.6358   -1.2939    2.5585 H         1 <0>         0.1246
     30 H12         4.3254   -1.8170    4.2694 H         1 <0>         0.1374
     31 H13         1.8038   -0.1517    7.2821 H         1 <0>         0.1445
     32 H14         0.1121    0.3845    5.5773 H         1 <0>         0.1408
     33 H15         1.3376   -0.7904   -1.3337 H         1 <0>         0.4321
     34 H16         0.2641   -2.0161   -1.0887 H         1 <0>         0.4355
     35 H17        -0.1733   -0.7049   -1.9854 H         1 <0>         0.4400
@<TRIPOS>BOND
     1    1    2 1
     2    1   21 1
     3    1   22 1
     4    1   23 1
     5    2    3 1
     6    2    4 1
     7    2   20 1
     8    4    5 1
     9    4    6 1
    10    4   12 1
    11    6   10 2
    12    6    7 1
    13    7    8 2
    14    7   24 1
    15    8    9 1
    16    9   10 1
    17    9   11 1
    18   10   25 1
    19   11   26 1
    20   11   27 1
    21   11   28 1
    22   12   13 1
    23   13   18 ar
    24   13   14 ar
    25   14   15 ar
    26   14   29 1
    27   15   16 ar
    28   15   30 1
    29   16   17 ar
    30   16   19 1
    31   17   18 ar
    32   17   31 1
    33   18   32 1
    34   20   33 1
    35   20   34 1
    36   20   35 1
@<TRIPOS>MOLECULE
ZINC43289725
   40    41     0     0     0
SMALL
USER_CHARGES

@<TRIPOS>ATOM
      1 C1          2.1940    1.5157    1.0440 C.3       1 <0>        -0.1870
      2 C2          1.1796    0.6300    0.3176 C.3       1 <0>         0.0355
      3 H1          1.6386    0.2110   -0.5778 H         1 <0>         0.1575
      4 C3          0.7385   -0.5053    1.2436 C.3       1 <0>         0.1652
      5 H2         -0.0564   -1.0769    0.7646 H         1 <0>         0.1052
      6 C4          1.9107   -1.4107    1.5219 C.2       1 <0>        -0.2202
      7 C5          2.2721   -2.5564    0.8939 C.2       1 <0>        -0.0980
      8 C6          3.4002   -3.2298    1.3248 C.2       1 <0>        -0.1414
      9 C7          4.1112   -2.7240    2.3627 C.2       1 <0>        -0.1200
     10 S1          3.1876   -1.2485    2.7589 S.3       1 <0>         0.1407
     11 Br1         3.9429   -4.8322    0.4799 Br        1 <0>        -0.0155
     12 O1          0.2573    0.0422    2.4727 O.3       1 <0>        -0.3755
     13 C8         -0.7203   -0.7690    3.1271 C.3       1 <0>         0.0575
     14 C9         -1.0760   -0.1480    4.4794 C.3       1 <0>        -0.1123
     15 C10        -2.1227   -1.0166    5.1800 C.3       1 <0>        -0.0793
     16 C11        -2.4730   -0.4048    6.5120 C.ar      1 <0>        -0.0449
     17 C12        -1.7656   -0.7419    7.6558 C.ar      1 <0>        -0.1706
     18 C13        -2.1155   -0.1606    8.8598 C.ar      1 <0>         0.1054
     19 N1         -3.1087    0.7042    8.9279 N.ar      1 <0>        -0.4837
     20 C14        -3.8032    1.0481    7.8609 C.ar      1 <0>         0.1040
     21 C15        -3.5067    0.5127    6.6218 C.ar      1 <0>        -0.1724
     22 N2          0.0105    1.4344   -0.0620 N.4       1 <0>        -0.6344
     23 H3          3.0614    0.9188    1.3257 H         1 <0>         0.1071
     24 H4          2.5082    2.3245    0.3843 H         1 <0>         0.0877
     25 H5          1.7350    1.9347    1.9394 H         1 <0>         0.0948
     26 H6          1.6876   -2.9376    0.0697 H         1 <0>         0.1456
     27 H7          5.0066   -3.1109    2.8263 H         1 <0>         0.2037
     28 H8         -1.6156   -0.8293    2.5083 H         1 <0>         0.0617
     29 H9         -0.3174   -1.7699    3.2817 H         1 <0>         0.0660
     30 H10        -0.1807   -0.0877    5.0982 H         1 <0>         0.0799
     31 H11        -1.4789    0.8529    4.3248 H         1 <0>         0.0761
     32 H12        -3.0180   -1.0769    4.5612 H         1 <0>         0.0806
     33 H13        -1.7198   -2.0175    5.3346 H         1 <0>         0.0819
     34 H14        -0.9516   -1.4500    7.6066 H         1 <0>         0.1348
     35 H15        -1.5694   -0.4178    9.7554 H         1 <0>         0.1586
     36 H16        -4.6102    1.7595    7.9558 H         1 <0>         0.1578
     37 H17        -4.0759    0.8020    5.7507 H         1 <0>         0.1332
     38 H18         0.2878    2.1347   -0.7334 H         1 <0>         0.4410
     39 H19        -0.6913    0.8357   -0.4708 H         1 <0>         0.4347
     40 H20        -0.3679    1.8854    0.7574 H         1 <0>         0.4394
@<TRIPOS>BOND
     1    1    2 1
     2    1   23 1
     3    1   24 1
     4    1   25 1
     5    2    3 1
     6    2    4 1
     7    2   22 1
     8    4    5 1
     9    4    6 1
    10    4   12 1
    11    6   10 1
    12    6    7 2
    13    7    8 1
    14    7   26 1
    15    8    9 2
    16    8   11 1
    17    9   10 1
    18    9   27 1
    19   12   13 1
    20   13   14 1
    21   13   28 1
    22   13   29 1
    23   14   15 1
    24   14   30 1
    25   14   31 1
    26   15   16 1
    27   15   32 1
    28   15   33 1
    29   16   21 ar
    30   16   17 ar
    31   17   18 ar
    32   17   34 1
    33   18   19 ar
    34   18   35 1
    35   19   20 ar
    36   20   21 ar
    37   20   36 1
    38   21   37 1
    39   22   38 1
    40   22   39 1
    41   22   40 1
@<TRIPOS>MOLECULE
ZINC53066413
   34    34     0     0     0
SMALL
USER_CHARGES

@<TRIPOS>ATOM
      1 C1         -0.0187    1.5258    0.0104 C.3       1 <0>        -0.1772
      2 C2          0.0021   -0.0041    0.0020 C.3       1 <0>        -0.1383
      3 C3          0.7421   -0.5109    1.2415 C.3       1 <0>         0.0570
      4 C4          0.7628   -2.0407    1.2331 C.3       1 <0>        -0.1388
      5 C5          1.3918   -2.5494    2.5318 C.3       1 <0>        -0.1793
      6 C6          2.1775    0.0187    1.2307 C.3       1 <0>         0.0643
      7 O1          2.8463   -0.4422    0.0550 O.3       1 <0>        -0.5494
      8 N1          0.0545   -0.0372    2.4502 N.4       1 <0>        -0.5061
      9 C7         -1.3237   -0.5456    2.4606 C.3       1 <0>         0.0849
     10 C8         -2.0290   -0.0596    3.7005 C.2       1 <0>        -0.0931
     11 C9         -2.7339    1.0809    3.8084 C.2       1 <0>        -0.1345
     12 C10        -3.2183    1.1393    5.1354 C.2       1 <0>        -0.1617
     13 C11        -2.7802    0.0302    5.7594 C.2       1 <0>        -0.0017
     14 O2         -2.0653   -0.6949    4.8836 O.3       1 <0>        -0.1490
     15 I1         -3.1564   -0.4822    7.7556 I         1 <0>         0.1105
     16 H1          1.0039    1.9031    0.0027 H         1 <0>         0.0749
     17 H2         -0.5459    1.8868   -0.8726 H         1 <0>         0.0882
     18 H3         -0.5289    1.8773    0.9072 H         1 <0>         0.0485
     19 H4         -1.0205   -0.3814    0.0098 H         1 <0>         0.0891
     20 H5          0.5123   -0.3556   -0.8948 H         1 <0>         0.1225
     21 H6         -0.2567   -2.4175    1.1513 H         1 <0>         0.0899
     22 H7          1.3491   -2.3915    0.3838 H         1 <0>         0.1229
     23 H8          1.4065   -3.6393    2.5258 H         1 <0>         0.0895
     24 H9          2.4113   -2.1727    2.6137 H         1 <0>         0.0741
     25 H10         0.8055   -2.1987    3.3812 H         1 <0>         0.0486
     26 H11         2.1627    1.1086    1.2367 H         1 <0>         0.0719
     27 H12         2.7046   -0.3424    2.1137 H         1 <0>         0.0706
     28 H13         3.7633   -0.1440   -0.0183 H         1 <0>         0.4058
     29 H14         0.5425   -0.3714    3.2676 H         1 <0>         0.4280
     30 H15        -1.8509   -0.1845    1.5775 H         1 <0>         0.1650
     31 H16        -1.3089   -1.6355    2.4546 H         1 <0>         0.1529
     32 H17        -2.8983    1.8119    3.0305 H         1 <0>         0.1708
     33 H18        -3.8236    1.9234    5.5657 H         1 <0>         0.1726
     34 H19         0.0408    0.9717    2.4557 H         1 <0>         0.4268
@<TRIPOS>BOND
     1    1    2 1
     2    1   16 1
     3    1   17 1
     4    1   18 1
     5    2    3 1
     6    2   19 1
     7    2   20 1
     8    3    4 1
     9    3    6 1
    10    3    8 1
    11    4    5 1
    12    4   21 1
    13    4   22 1
    14    5   23 1
    15    5   24 1
    16    5   25 1
    17    6    7 1
    18    6   26 1
    19    6   27 1
    20    7   28 1
    21    8    9 1
    22    8   29 1
    23    8   34 1
    24    9   10 1
    25    9   30 1
    26    9   31 1
    27   10   14 1
    28   10   11 2
    29   11   12 1
    30   11   32 1
    31   12   13 2
    32   12   33 1
    33   13   14 1
    34   13   15 1
@<TRIPOS>MOLECULE
ZINC62703974
   37    38     0     0     0
SMALL
USER_CHARGES

@<TRIPOS>ATOM
      1 C1         -0.0184    1.5028    0.0103 C.3       1 <0>        -0.0687
      2 C2          0.0021   -0.0041    0.0020 C.2       1 <0>         0.0667
      3 N1         -1.0131   -0.8316    0.0019 N.2       1 <0>        -0.5195
      4 C3         -0.8336   -2.1374   -0.0059 C.2       1 <0>         0.0490
      5 C4          0.4492   -2.5821   -0.0139 C.2       1 <0>        -0.2069
      6 S1          1.3350   -1.0316   -0.0168 S.3       1 <0>         0.1258
      7 C5         -1.9989   -3.0929   -0.0056 C.3       1 <0>         0.1391
      8 O1         -1.5129   -4.4368   -0.0145 O.3       1 <0>        -0.2930
      9 C6         -2.4419   -5.4289   -0.0154 C.ar      1 <0>         0.1801
     10 C7         -3.7932   -5.1154   -0.0135 C.ar      1 <0>        -0.1924
     11 C8         -4.7356   -6.1255   -0.0144 C.ar      1 <0>        -0.0449
     12 C9         -4.3333   -7.4485   -0.0171 C.ar      1 <0>        -0.1647
     13 C10        -2.9874   -7.7643   -0.0189 C.ar      1 <0>        -0.0731
     14 C11        -2.0403   -6.7574   -0.0239 C.ar      1 <0>        -0.1244
     15 Br1        -0.1993   -7.1896   -0.0349 Br        1 <0>        -0.0135
     16 C12        -5.3639   -8.5480   -0.0175 C.3       1 <0>        -0.0940
     17 C13        -5.7146   -8.9178   -1.4601 C.3       1 <0>         0.0310
     18 H1         -6.0323   -8.0241   -1.9973 H         1 <0>         0.1431
     19 C14        -6.8491   -9.9443   -1.4621 C.3       1 <0>        -0.1848
     20 N2         -4.5339   -9.4915   -2.1194 N.4       1 <0>        -0.6396
     21 H2          1.0042    1.8801    0.0026 H         1 <0>         0.0893
     22 H3         -0.5455    1.8639   -0.8728 H         1 <0>         0.0944
     23 H4         -0.5286    1.8543    0.9071 H         1 <0>         0.0948
     24 H5          0.8286   -3.5932   -0.0206 H         1 <0>         0.2000
     25 H6         -2.6016   -2.9305    0.8879 H         1 <0>         0.0889
     26 H7         -2.6096   -2.9215   -0.8920 H         1 <0>         0.0881
     27 H8         -4.1083   -4.0824   -0.0110 H         1 <0>         0.1475
     28 H9         -5.7877   -5.8816   -0.0125 H         1 <0>         0.1408
     29 H10        -2.6758   -8.7983   -0.0207 H         1 <0>         0.1384
     30 H11        -4.9623   -9.4226    0.4944 H         1 <0>         0.1001
     31 H12        -6.2610   -8.2054    0.4981 H         1 <0>         0.1230
     32 H13        -6.5313  -10.8380   -0.9250 H         1 <0>         0.0839
     33 H14        -7.7252   -9.5186   -0.9729 H         1 <0>         0.1083
     34 H15        -7.0989  -10.2078   -2.4899 H         1 <0>         0.0847
     35 H16        -4.2398  -10.3188   -1.6222 H         1 <0>         0.4325
     36 H17        -4.7651   -9.7354   -3.0708 H         1 <0>         0.4371
     37 H18        -3.7857   -8.8145   -2.1181 H         1 <0>         0.4326
@<TRIPOS>BOND
     1    1    2 1
     2    1   21 1
     3    1   22 1
     4    1   23 1
     5    2    6 1
     6    2    3 2
     7    3    4 1
     8    4    5 2
     9    4    7 1
    10    5    6 1
    11    5   24 1
    12    7    8 1
    13    7   25 1
    14    7   26 1
    15    8    9 1
    16    9   14 ar
    17    9   10 ar
    18   10   11 ar
    19   10   27 1
    20   11   12 ar
    21   11   28 1
    22   12   13 ar
    23   12   16 1
    24   13   14 ar
    25   13   29 1
    26   14   15 1
    27   16   17 1
    28   16   30 1
    29   16   31 1
    30   17   18 1
    31   17   19 1
    32   17   20 1
    33   19   32 1
    34   19   33 1
    35   19   34 1
    36   20   35 1
    37   20   36 1
    38   20   37 1
@<TRIPOS>MOLECULE
ZINC11667980
   53    56     0     0     0
SMALL
USER_CHARGES
4-[1-[[5-methyl-2-(4-methylsulfanylphenyl)oxazol-4-yl]methyl]-4-piperidyl]pyridine
@<TRIPOS>ATOM
      1 C1         -4.5418   -2.0092    0.0106 C.3       1 <0>        -0.0941
      2 C2         -3.9357   -0.6294    0.0159 C.2       1 <0>         0.0088
      3 C3         -4.6066    0.5360    0.0257 C.2       1 <0>        -0.0814
      4 N1         -3.7047    1.5301    0.0273 N.2       1 <0>        -0.4683
      5 C4         -2.5015    1.0048    0.0188 C.2       1 <0>         0.2815
      6 O1         -2.6200   -0.3344    0.0058 O.3       1 <0>        -0.1792
      7 C5         -1.2313    1.7585    0.0174 C.ar      1 <0>        -0.0582
      8 C6         -0.0126    1.0758    0.0080 C.ar      1 <0>        -0.0570
      9 C7          1.1702    1.7812    0.0005 C.ar      1 <0>        -0.1028
     10 C8          1.1521    3.1727    0.0077 C.ar      1 <0>        -0.0519
     11 C9         -0.0605    3.8554    0.0230 C.ar      1 <0>        -0.1410
     12 C10        -1.2464    3.1553    0.0310 C.ar      1 <0>        -0.0382
     13 S1          2.6674    4.0719   -0.0031 S.3       1 <0>        -0.0857
     14 C11         2.1467    5.8095    0.0110 C.3       1 <0>        -0.1522
     15 C12        -6.1050    0.6972    0.0338 C.3       1 <0>         0.0942
     16 C13        -5.9860   -0.2927   -2.1721 C.3       1 <0>        -0.0094
     17 C14        -6.4094   -0.1103   -3.6314 C.3       1 <0>        -0.1384
     18 C15        -7.9357   -0.1851   -3.7280 C.3       1 <0>        -0.0555
     19 C16        -8.5497    0.8872   -2.8238 C.3       1 <0>        -0.1411
     20 C17        -8.0642    0.6759   -1.3879 C.3       1 <0>         0.0003
     21 C18        -8.3637    0.0526   -5.1533 C.ar      1 <0>        -0.0497
     22 C19        -8.0567    1.2413   -5.7976 C.ar      1 <0>        -0.1722
     23 C20        -8.4614    1.4217   -7.1067 C.ar      1 <0>         0.1087
     24 N2         -9.1403    0.4840   -7.7382 N.ar      1 <0>        -0.4773
     25 C21        -9.4546   -0.6563   -7.1551 C.ar      1 <0>         0.1105
     26 C22        -9.0788   -0.9098   -5.8495 C.ar      1 <0>        -0.1649
     27 H1         -4.6926   -2.3359   -1.0183 H         1 <0>         0.0960
     28 H2         -3.8708   -2.7027    0.5174 H         1 <0>         0.1003
     29 H3         -5.5004   -1.9869    0.5289 H         1 <0>         0.0992
     30 H4          0.0021   -0.0041    0.0020 H         1 <0>         0.1385
     31 H5          2.1127    1.2540   -0.0114 H         1 <0>         0.1427
     32 H6         -0.0715    4.9354    0.0289 H         1 <0>         0.1372
     33 H7         -2.1871    3.6857    0.0425 H         1 <0>         0.1408
     34 H8          1.5592    6.0055    0.9079 H         1 <0>         0.0889
     35 H9          3.0267    6.4526    0.0053 H         1 <0>         0.1172
     36 H10         1.5412    6.0145   -0.8719 H         1 <0>         0.0884
     37 H11        -6.5590   -0.1517    0.5451 H         1 <0>         0.1457
     38 H12        -6.3685    1.6181    0.5541 H         1 <0>         0.1467
     39 H13        -4.9006   -0.2257   -2.0979 H         1 <0>         0.1250
     40 H14        -6.3144   -1.2699   -1.8181 H         1 <0>         0.1337
     41 H15        -5.9672   -0.8991   -4.2400 H         1 <0>         0.1143
     42 H16        -6.0692    0.8608   -3.9910 H         1 <0>         0.0910
     43 H17        -8.2733   -1.1702   -3.4058 H         1 <0>         0.1015
     44 H18        -9.6366    0.8112   -2.8553 H         1 <0>         0.1172
     45 H19        -8.2438    1.8746   -3.1697 H         1 <0>         0.0921
     46 H20        -8.3829   -0.3058   -1.0376 H         1 <0>         0.1343
     47 H21        -8.4883    1.4465   -0.7442 H         1 <0>         0.1350
     48 H22        -7.5049    2.0149   -5.2843 H         1 <0>         0.1316
     49 H23        -8.2221    2.3428   -7.6173 H         1 <0>         0.1598
     50 H24       -10.0117   -1.4008   -7.7043 H         1 <0>         0.1618
     51 H25        -9.3385   -1.8459   -5.3777 H         1 <0>         0.1379
     52 N3         -6.5900    0.7841   -1.3591 N.4       1 <0>        -0.3930
     53 H26        -6.3150    1.6920   -1.7518 H         1 <0>         0.4310
@<TRIPOS>BOND
     1    1    2 1
     2    1   27 1
     3    1   28 1
     4    1   29 1
     5    2    6 1
     6    2    3 2
     7    3    4 1
     8    3   15 1
     9    4    5 2
    10    5    6 1
    11    5    7 1
    12    7   12 ar
    13    7    8 ar
    14    8    9 ar
    15    8   30 1
    16    9   10 ar
    17    9   31 1
    18   10   11 ar
    19   10   13 1
    20   11   12 ar
    21   11   32 1
    22   12   33 1
    23   13   14 1
    24   14   34 1
    25   14   35 1
    26   14   36 1
    27   15   37 1
    28   15   38 1
    29   15   52 1
    30   16   17 1
    31   16   39 1
    32   16   40 1
    33   16   52 1
    34   17   18 1
    35   17   41 1
    36   17   42 1
    37   18   19 1
    38   18   21 1
    39   18   43 1
    40   19   20 1
    41   19   44 1
    42   19   45 1
    43   20   46 1
    44   20   47 1
    45   20   52 1
    46   21   26 ar
    47   21   22 ar
    48   22   23 ar
    49   22   48 1
    50   23   24 ar
    51   23   49 1
    52   24   25 ar
    53   25   26 ar
    54   25   50 1
    55   26   51 1
    56   52   53 1
@<TRIPOS>MOLECULE
ZINC20999201
   70    73     0     0     0
SMALL
USER_CHARGES
3-[1-[[(1S,5R)-7,7-dimethyl-4-bicyclo[3.1.1]hept-3-enyl]methyl]-4-piperidyl]-1-(4-ethylpiperazin-1-yl)propan-1-one
@<TRIPOS>ATOM
      1 C1         -6.8723   13.6158   -0.9922 C.3       1 <0>        -0.1523
      2 C2         -6.6013   13.0379   -2.3827 C.3       1 <0>         0.0486
      3 N1         -6.6348   11.5707   -2.3182 N.3       1 <0>        -0.5379
      4 C3         -6.6157   10.9839   -3.6648 C.3       1 <0>         0.0387
      5 C4         -6.8338    9.4706   -3.5621 C.3       1 <0>         0.1127
      6 N2         -5.8407    8.9177   -2.6287 N.am      1 <0>        -0.6134
      7 C5         -5.7100    9.5402   -1.3026 C.3       1 <0>         0.1102
      8 C6         -5.5321   11.0545   -1.4963 C.3       1 <0>         0.0346
      9 C7         -5.0746    7.8651   -2.9773 C.2       1 <0>         0.5116
     10 O1         -5.1992    7.3609   -4.0733 O.2       1 <0>        -0.5388
     11 C8         -4.0632    7.3145   -2.0052 C.3       1 <0>        -0.1434
     12 C9         -3.3331    6.1315   -2.6442 C.3       1 <0>        -0.1020
     13 C10        -2.3062    5.5725   -1.6573 C.3       1 <0>        -0.1003
     14 C11        -1.4894    4.4707   -2.3380 C.3       1 <0>        -0.1426
     15 C12        -0.5049    3.8750   -1.3290 C.3       1 <0>        -0.0024
     16 N3         -1.2457    3.3251   -0.1865 N.4       1 <0>        -0.3955
     17 C13        -2.0004    4.3738    0.5115 C.3       1 <0>        -0.0081
     18 C14        -3.0295    4.9843   -0.4426 C.3       1 <0>        -0.1446
     19 C15        -0.3443    2.6224    0.7364 C.3       1 <0>         0.0476
     20 C16        -1.1212    2.1583    1.9414 C.2       1 <0>        -0.2039
     21 C17        -1.1369    2.8569    3.0534 C.2       1 <0>        -0.0753
     22 C18        -1.9346    2.3610    4.2350 C.3       1 <0>        -0.1040
     23 C19        -2.5581    0.9984    3.9030 C.3       1 <0>        -0.1265
     24 H1         -3.0423    0.7419    4.8568 H         1 <0>         0.0950
     25 C20        -3.3056    1.0512    2.5548 C.3       1 <0>        -0.1235
     26 C21        -1.9215    0.8678    1.9149 C.3       1 <0>        -0.0531
     27 H2         -1.7993    0.5261    0.8765 H         1 <0>         0.0891
     28 C22        -1.5692    0.0412    3.2157 C.3       1 <0>        -0.0486
     29 C23        -0.1260    0.1866    3.7024 C.3       1 <0>        -0.1495
     30 C24        -2.0447   -1.4123    3.1685 C.3       1 <0>        -0.1361
     31 H3         -6.8472   14.7145   -1.0405 H         1 <0>         0.0638
     32 H4         -6.1017   13.2619   -0.2915 H         1 <0>         0.0539
     33 H5         -7.8628   13.2865   -0.6450 H         1 <0>         0.0660
     34 H6         -7.3719   13.3918   -3.0834 H         1 <0>         0.0801
     35 H7         -5.6109   13.3672   -2.7300 H         1 <0>         0.0347
     36 H8         -7.4175   11.4308   -4.2709 H         1 <0>         0.0927
     37 H9         -5.6432   11.1841   -4.1383 H         1 <0>         0.0388
     38 H10        -7.8498    9.2710   -3.1907 H         1 <0>         0.0791
     39 H11        -6.7102    9.0141   -4.5552 H         1 <0>         0.0987
     40 H12        -6.6161    9.3391   -0.7123 H         1 <0>         0.0817
     41 H13        -4.8347    9.1205   -0.7852 H         1 <0>         0.0866
     42 H14        -4.5750   11.2516   -2.0013 H         1 <0>         0.0384
     43 H15        -5.5396   11.5548   -0.5167 H         1 <0>         0.0944
     44 H16        -3.3360    8.0991   -1.7490 H         1 <0>         0.0952
     45 H17        -4.5770    6.9786   -1.0924 H         1 <0>         0.0945
     46 H18        -4.0603    5.3469   -2.9004 H         1 <0>         0.0788
     47 H19        -2.8193    6.4674   -3.5570 H         1 <0>         0.0821
     48 H20        -1.6372    6.3831   -1.3327 H         1 <0>         0.0887
     49 H21        -2.1665    3.6834   -2.7009 H         1 <0>         0.0910
     50 H22        -0.9344    4.8969   -3.1867 H         1 <0>         0.1136
     51 H23         0.0735    3.0729   -1.8108 H         1 <0>         0.1311
     52 H24         0.1801    4.6606   -0.9774 H         1 <0>         0.1247
     53 H25        -2.5183    3.9375    1.3784 H         1 <0>         0.1320
     54 H26        -1.3084    5.1573    0.8539 H         1 <0>         0.1218
     55 H27        -3.5845    5.7807    0.0747 H         1 <0>         0.1103
     56 H28        -3.7311    4.2052   -0.7754 H         1 <0>         0.0905
     57 H29         0.0967    1.7528    0.2272 H         1 <0>         0.1360
     58 H30         0.4568    3.3046    1.0571 H         1 <0>         0.1271
     59 H31        -0.5708    3.7977    3.1199 H         1 <0>         0.1208
     60 H32        -1.2719    2.2561    5.1067 H         1 <0>         0.0919
     61 H33        -2.7335    3.0809    4.4663 H         1 <0>         0.0911
     62 H34        -4.0395    0.2331    2.5102 H         1 <0>         0.0979
     63 H35        -3.8258    2.0159    2.4615 H         1 <0>         0.0688
     64 H36         0.5156   -0.5280    3.1660 H         1 <0>         0.0589
     65 H37        -0.0807   -0.0187    4.7821 H         1 <0>         0.0631
     66 H38         0.2247    1.2111    3.5089 H         1 <0>         0.0618
     67 H39        -1.2866   -2.0299    2.6646 H         1 <0>         0.0635
     68 H40        -2.9927   -1.4701    2.6136 H         1 <0>         0.0632
     69 H41        -2.1966   -1.7819    4.1934 H         1 <0>         0.0661
     70 H42        -1.9695    2.5944   -0.5767 H         1 <0>         0.4398
@<TRIPOS>BOND
     1    1    2 1
     2    1   31 1
     3    1   32 1
     4    1   33 1
     5    2    3 1
     6    2   34 1
     7    2   35 1
     8    3    8 1
     9    3    4 1
    10    4    5 1
    11    4   36 1
    12    4   37 1
    13    5    6 1
    14    5   38 1
    15    5   39 1
    16    6    7 1
    17    6    9 am
    18    7    8 1
    19    7   40 1
    20    7   41 1
    21    8   42 1
    22    8   43 1
    23    9   10 2
    24    9   11 1
    25   11   12 1
    26   11   44 1
    27   11   45 1
    28   12   13 1
    29   12   46 1
    30   12   47 1
    31   13   18 1
    32   13   14 1
    33   13   48 1
    34   14   15 1
    35   14   49 1
    36   14   50 1
    37   15   16 1
    38   15   51 1
    39   15   52 1
    40   16   17 1
    41   16   19 1
    42   16   70 1
    43   17   18 1
    44   17   53 1
    45   17   54 1
    46   18   55 1
    47   18   56 1
    48   19   20 1
    49   19   57 1
    50   19   58 1
    51   20   26 1
    52   20   21 2
    53   21   22 1
    54   21   59 1
    55   22   23 1
    56   22   60 1
    57   22   61 1
    58   23   24 1
    59   23   28 1
    60   23   25 1
    61   25   26 1
    62   25   62 1
    63   25   63 1
    64   26   27 1
    65   26   28 1
    66   28   29 1
    67   28   30 1
    68   29   64 1
    69   29   65 1
    70   29   66 1
    71   30   67 1
    72   30   68 1
    73   30   69 1
@<TRIPOS>MOLECULE
ZINC43608203
   60    63     0     0     0
SMALL
USER_CHARGES

@<TRIPOS>ATOM
      1 C1          0.7174    1.4491    0.9362 C.ar      1 <0>        -0.1508
      2 C2          1.9492    2.0768    0.9557 C.ar      1 <0>        -0.0758
      3 C3          3.1075    1.3309    0.8535 C.ar      1 <0>        -0.1438
      4 C4          3.0340   -0.0491    0.7316 C.ar      1 <0>         0.1206
      5 C5          1.7968   -0.6766    0.7128 C.ar      1 <0>        -0.2118
      6 C6          0.6415    0.0739    0.8148 C.ar      1 <0>        -0.0801
      7 O1          4.1720   -0.7850    0.6305 O.3       1 <0>        -0.2905
      8 C7          4.0204   -2.2007    0.5078 C.3       1 <0>         0.0425
      9 C8          5.3792   -2.8447    0.4081 C.2       1 <0>         0.5218
     10 O2          6.3790   -2.1589    0.4391 O.2       1 <0>        -0.4924
     11 N1          5.4834   -4.1827    0.2845 N.am      1 <0>        -0.6196
     12 C9          4.2816   -5.0269    0.2393 C.3       1 <0>         0.1093
     13 C10         4.3417   -5.9008   -1.0172 C.3       1 <0>        -0.1629
     14 C11         5.6562   -6.6854   -1.0276 C.3       1 <0>         0.0322
     15 H1          5.7169   -7.3064   -0.1339 H         1 <0>         0.1410
     16 C12         6.8348   -5.7089   -1.0531 C.3       1 <0>        -0.1161
     17 H2          7.7700   -6.2682   -1.0795 H         1 <0>         0.1095
     18 C13         6.8006   -4.8258    0.1862 C.3       1 <0>         0.1202
     19 C14         6.7313   -4.8274   -2.3006 C.3       1 <0>        -0.1331
     20 C15         6.6992   -5.7230   -3.5427 C.3       1 <0>        -0.1427
     21 C16         5.5342   -6.7080   -3.4259 C.3       1 <0>        -0.0172
     22 N2          5.7014   -7.5389   -2.2226 N.4       1 <0>        -0.3809
     23 C17         4.6230   -8.5340   -2.1535 C.3       1 <0>        -0.0091
     24 C18         4.7608   -9.5171   -3.3178 C.3       1 <0>        -0.1147
     25 H3          4.8000   -8.9678   -4.2584 H         1 <0>         0.0969
     26 C19         6.0436  -10.3409   -3.1479 C.3       1 <0>        -0.1267
     27 C20         6.2478  -11.1839   -4.4085 C.3       1 <0>        -0.0938
     28 C21         4.9820  -11.9122   -4.7540 C.2       1 <0>        -0.1508
     29 C22         3.8157  -11.6013   -4.2865 C.2       1 <0>        -0.1618
     30 C23         3.5651  -10.4719   -3.3291 C.3       1 <0>        -0.0795
     31 H4         -0.1869    2.0336    1.0204 H         1 <0>         0.1284
     32 H5          2.0059    3.1511    1.0506 H         1 <0>         0.1345
     33 H6          4.0694    1.8217    0.8681 H         1 <0>         0.1343
     34 H7          1.7370   -1.7507    0.6176 H         1 <0>         0.1229
     35 H8         -0.3219   -0.4141    0.8001 H         1 <0>         0.1274
     36 H9          3.4984   -2.5874    1.3830 H         1 <0>         0.0954
     37 H10         3.4439   -2.4280   -0.3889 H         1 <0>         0.0918
     38 H11         4.2472   -5.6617    1.1248 H         1 <0>         0.0897
     39 H12         3.3931   -4.3965    0.2040 H         1 <0>         0.1032
     40 H13         3.5028   -6.5967   -1.0167 H         1 <0>         0.1031
     41 H14         4.2890   -5.2679   -1.9031 H         1 <0>         0.0982
     42 H15         7.5749   -4.0622    0.1116 H         1 <0>         0.1159
     43 H16         6.9743   -5.4390    1.0704 H         1 <0>         0.0845
     44 H17         5.8173   -4.2354   -2.2541 H         1 <0>         0.0824
     45 H18         7.5949   -4.1643   -2.3513 H         1 <0>         0.0976
     46 H19         6.5670   -5.1070   -4.4322 H         1 <0>         0.1137
     47 H20         7.6361   -6.2749   -3.6177 H         1 <0>         0.0889
     48 H21         4.5974   -6.1551   -3.3562 H         1 <0>         0.1305
     49 H22         5.5114   -7.3488   -4.3074 H         1 <0>         0.1322
     50 H23         4.6889   -9.0763   -1.2103 H         1 <0>         0.1330
     51 H24         3.6587   -8.0297   -2.2161 H         1 <0>         0.1324
     52 H25         6.8935   -9.6719   -3.0128 H         1 <0>         0.0579
     53 H26         5.9469  -10.9949   -2.2813 H         1 <0>         0.0835
     54 H27         6.5279  -10.5332   -5.2369 H         1 <0>         0.0789
     55 H28         7.0447  -11.9070   -4.2344 H         1 <0>         0.0845
     56 H29         5.0482  -12.7476   -5.4353 H         1 <0>         0.1123
     57 H30         2.9683  -12.1887   -4.6078 H         1 <0>         0.1141
     58 H31         3.4164  -10.8766   -2.3280 H         1 <0>         0.0843
     59 H32         2.6709   -9.9275   -3.6330 H         1 <0>         0.0839
     60 H33         6.5917   -8.0119   -2.2638 H         1 <0>         0.4212
@<TRIPOS>BOND
     1    1    6 ar
     2    1    2 ar
     3    1   31 1
     4    2    3 ar
     5    2   32 1
     6    3    4 ar
     7    3   33 1
     8    4    5 ar
     9    4    7 1
    10    5    6 ar
    11    5   34 1
    12    6   35 1
    13    7    8 1
    14    8    9 1
    15    8   36 1
    16    8   37 1
    17    9   10 2
    18    9   11 am
    19   11   18 1
    20   11   12 1
    21   12   13 1
    22   12   38 1
    23   12   39 1
    24   13   14 1
    25   13   40 1
    26   13   41 1
    27   14   15 1
    28   14   22 1
    29   14   16 1
    30   16   17 1
    31   16   18 1
    32   16   19 1
    33   18   42 1
    34   18   43 1
    35   19   20 1
    36   19   44 1
    37   19   45 1
    38   20   21 1
    39   20   46 1
    40   20   47 1
    41   21   22 1
    42   21   48 1
    43   21   49 1
    44   22   23 1
    45   22   60 1
    46   23   24 1
    47   23   50 1
    48   23   51 1
    49   24   25 1
    50   24   30 1
    51   24   26 1
    52   26   27 1
    53   26   52 1
    54   26   53 1
    55   27   28 1
    56   27   54 1
    57   27   55 1
    58   28   29 2
    59   28   56 1
    60   29   30 1
    61   29   57 1
    62   30   58 1
    63   30   59 1
@<TRIPOS>MOLECULE
ZINC60512280
   39    41     0     0     0
SMALL
USER_CHARGES

@<TRIPOS>ATOM
      1 C1         -0.0184    1.5028    0.0103 C.3       1 <0>        -0.1246
      2 C2          0.0021   -0.0041    0.0020 C.2       1 <0>         0.0805
      3 C3          0.0054   -0.6532   -1.1620 C.2       1 <0>        -0.1573
      4 S1          0.0318   -2.3579   -0.6302 S.3       1 <0>         0.3176
      5 C4          0.0361   -2.0538    1.1235 C.cat     1 <0>         0.3137
      6 N1          0.0227   -0.6863    1.1948 N.am      1 <0>        -0.4309
      7 C5          0.0267   -0.1416    2.4480 C.2       1 <0>         0.5281
      8 O1          0.0107    1.0713    2.5873 O.2       1 <0>        -0.4281
      9 C6          0.0487   -0.9730    3.5681 C.2       1 <0>        -0.2032
     10 C7          0.0663   -2.3417    3.4042 C.2       1 <0>         0.2024
     11 N2          0.0522   -2.8403    2.1707 N.pl3     1 <0>        -0.4825
     12 C8          0.0907   -3.2571    4.6011 C.3       1 <0>        -0.0884
     13 S2         -1.5489   -3.9991    4.8284 S.3       1 <0>        -0.2194
     14 C9         -1.3529   -5.0581    6.2881 C.3       1 <0>        -0.0314
     15 C10        -2.6604   -5.7435    6.5907 C.ar      1 <0>        -0.1196
     16 C11        -3.5778   -5.1399    7.4309 C.ar      1 <0>        -0.0586
     17 C12        -4.7769   -5.7664    7.7103 C.ar      1 <0>        -0.1343
     18 C13        -5.0606   -7.0019    7.1466 C.ar      1 <0>         0.1251
     19 C14        -4.1387   -7.6051    6.3035 C.ar      1 <0>        -0.1915
     20 C15        -2.9432   -6.9722    6.0232 C.ar      1 <0>        -0.0566
     21 O2         -6.2393   -7.6203    7.4202 O.3       1 <0>        -0.3173
     22 C16        -6.4638   -8.8903    6.8048 C.3       1 <0>         0.4117
     23 F1         -6.4284   -8.7471    5.4136 F         1 <0>        -0.1970
     24 F2         -5.4671   -9.7860    7.2068 F         1 <0>        -0.1954
     25 H1          1.0042    1.8801    0.0026 H         1 <0>         0.1043
     26 H2         -0.5455    1.8639   -0.8728 H         1 <0>         0.1075
     27 H3         -0.5286    1.8543    0.9071 H         1 <0>         0.1110
     28 H4         -0.0054   -0.2528   -2.1650 H         1 <0>         0.2496
     29 H5          0.0524   -0.5458    4.5601 H         1 <0>         0.2082
     30 H6          0.8270   -4.0448    4.4411 H         1 <0>         0.1273
     31 H7          0.3573   -2.6857    5.4902 H         1 <0>         0.1413
     32 H8         -0.5863   -5.8079    6.0927 H         1 <0>         0.1009
     33 H9         -1.0559   -4.4488    7.1417 H         1 <0>         0.1037
     34 H10        -3.3565   -4.1781    7.8695 H         1 <0>         0.1380
     35 H11        -5.4928   -5.2949    8.3672 H         1 <0>         0.1421
     36 H12        -4.3572   -8.5669    5.8635 H         1 <0>         0.1392
     37 H13        -2.2270   -7.4394    5.3634 H         1 <0>         0.1320
     38 H14        -7.4390   -9.2728    7.1060 H         1 <0>         0.1878
     39 H15         0.0650   -3.8020    2.0448 H         1 <0>         0.4644
@<TRIPOS>BOND
     1    1    2 1
     2    1   25 1
     3    1   26 1
     4    1   27 1
     5    2    6 1
     6    2    3 2
     7    3    4 1
     8    3   28 1
     9    4    5 1
    10    5   11 2
    11    5    6 1
    12    6    7 am
    13    7    8 2
    14    7    9 1
    15    9   10 2
    16    9   29 1
    17   10   11 1
    18   10   12 1
    19   11   39 1
    20   12   13 1
    21   12   30 1
    22   12   31 1
    23   13   14 1
    24   14   15 1
    25   14   32 1
    26   14   33 1
    27   15   20 ar
    28   15   16 ar
    29   16   17 ar
    30   16   34 1
    31   17   18 ar
    32   17   35 1
    33   18   19 ar
    34   18   21 1
    35   19   20 ar
    36   19   36 1
    37   20   37 1
    38   21   22 1
    39   22   23 1
    40   22   24 1
    41   22   38 1
@<TRIPOS>MOLECULE
ZINC66535647
   56    59     0     0     0
SMALL
USER_CHARGES

@<TRIPOS>ATOM
      1 C1         -0.0184    1.5028    0.0103 C.3       1 <0>        -0.1158
      2 C2          0.0021   -0.0041    0.0020 C.ar      1 <0>        -0.1143
      3 C3          0.0057   -0.6876   -1.1998 C.ar      1 <0>        -0.0796
      4 C4          0.0240   -2.0689   -1.2101 C.ar      1 <0>        -0.1426
      5 C5          0.0391   -2.7702   -0.0132 C.ar      1 <0>         0.1171
      6 C6          0.0359   -2.0820    1.1914 C.ar      1 <0>        -0.2033
      7 C7          0.0229   -0.7006    1.1962 C.ar      1 <0>        -0.0793
      8 O1          0.0567   -4.1291   -0.0207 O.3       1 <0>        -0.3103
      9 C8          0.0716   -4.7847    1.2490 C.3       1 <0>         0.1523
     10 C9          0.0899   -6.2775    1.0433 C.2       1 <0>         0.0384
     11 N1          1.1259   -7.0709    0.9323 N.2       1 <0>        -0.4936
     12 C10         0.9800   -8.3687    0.7538 C.2       1 <0>         0.0555
     13 C11        -0.2909   -8.8420    0.6906 C.2       1 <0>        -0.2157
     14 S1         -1.2162   -7.3304    0.9079 S.3       1 <0>         0.1814
     15 C12         2.1694   -9.2850    0.6251 C.3       1 <0>         0.1197
     16 N2          2.6277   -9.2996   -0.7705 N.3       1 <0>        -0.5369
     17 C13         1.6467   -9.9793   -1.6432 C.3       1 <0>         0.0441
     18 C14         2.5014  -10.6781   -2.7299 C.3       1 <0>        -0.1329
     19 C15         3.7362  -11.1368   -1.9103 C.3       1 <0>        -0.1313
     20 C16         3.9241   -9.9910   -0.8939 C.3       1 <0>         0.0421
     21 H1          4.2208  -10.3978    0.0729 H         1 <0>         0.0892
     22 C17         4.9882   -9.0152   -1.4002 C.3       1 <0>         0.0134
     23 N3          5.0375   -7.8427   -0.5167 N.4       1 <0>        -0.3905
     24 C18         5.5776   -8.2256    0.8129 C.3       1 <0>        -0.0083
     25 C19         6.0866   -6.8805    1.3895 C.3       1 <0>        -0.1438
     26 C20         6.6665   -6.1686    0.1458 C.3       1 <0>        -0.1433
     27 C21         5.9754   -6.8353   -1.0580 C.3       1 <0>        -0.0075
     28 H2          1.0042    1.8801    0.0026 H         1 <0>         0.0710
     29 H3         -0.5455    1.8639   -0.8728 H         1 <0>         0.0686
     30 H4         -0.5286    1.8543    0.9071 H         1 <0>         0.0679
     31 H5         -0.0061   -0.1412   -2.1314 H         1 <0>         0.1324
     32 H6          0.0261   -2.6024   -2.1492 H         1 <0>         0.1304
     33 H7          0.0477   -2.6256    2.1245 H         1 <0>         0.1275
     34 H8          0.0248   -0.1643    2.1337 H         1 <0>         0.1282
     35 H9          0.9606   -4.4833    1.8030 H         1 <0>         0.0953
     36 H10        -0.8192   -4.5064    1.8121 H         1 <0>         0.0926
     37 H11        -0.6442   -9.8530    0.5514 H         1 <0>         0.1985
     38 H12         2.9741   -8.9283    1.2680 H         1 <0>         0.0842
     39 H13         1.8851  -10.2937    0.9247 H         1 <0>         0.0705
     40 H14         1.0795  -10.7162   -1.0745 H         1 <0>         0.0613
     41 H15         0.9753   -9.2513   -2.0985 H         1 <0>         0.0899
     42 H16         1.9734  -11.5331   -3.1520 H         1 <0>         0.0885
     43 H17         2.7905   -9.9751   -3.5111 H         1 <0>         0.0798
     44 H18         3.5312  -12.0768   -1.3980 H         1 <0>         0.0879
     45 H19         4.6121  -11.2298   -2.5525 H         1 <0>         0.0878
     46 H20         5.9605   -9.5081   -1.4045 H         1 <0>         0.1302
     47 H21         4.7376   -8.6973   -2.4123 H         1 <0>         0.1301
     48 H22         4.7909   -8.6410    1.4426 H         1 <0>         0.1269
     49 H23         6.3995   -8.9334    0.7050 H         1 <0>         0.1321
     50 H24         5.2628   -6.3063    1.8136 H         1 <0>         0.0977
     51 H25         6.8639   -7.0498    2.1346 H         1 <0>         0.1150
     52 H26         6.4317   -5.1045    0.1752 H         1 <0>         0.1037
     53 H27         7.7450   -6.3175    0.0932 H         1 <0>         0.1029
     54 H28         6.7184   -7.3215   -1.6902 H         1 <0>         0.1285
     55 H29         5.4272   -6.0882   -1.6321 H         1 <0>         0.1293
     56 H30         4.1166   -7.4426   -0.4171 H         1 <0>         0.4375
@<TRIPOS>BOND
     1    1    2 1
     2    1   28 1
     3    1   29 1
     4    1   30 1
     5    2    7 ar
     6    2    3 ar
     7    3    4 ar
     8    3   31 1
     9    4    5 ar
    10    4   32 1
    11    5    6 ar
    12    5    8 1
    13    6    7 ar
    14    6   33 1
    15    7   34 1
    16    8    9 1
    17    9   10 1
    18    9   35 1
    19    9   36 1
    20   10   14 1
    21   10   11 2
    22   11   12 1
    23   12   13 2
    24   12   15 1
    25   13   14 1
    26   13   37 1
    27   15   16 1
    28   15   38 1
    29   15   39 1
    30   16   20 1
    31   16   17 1
    32   17   18 1
    33   17   40 1
    34   17   41 1
    35   18   19 1
    36   18   42 1
    37   18   43 1
    38   19   20 1
    39   19   44 1
    40   19   45 1
    41   20   21 1
    42   20   22 1
    43   22   23 1
    44   22   46 1
    45   22   47 1
    46   23   27 1
    47   23   24 1
    48   23   56 1
    49   24   25 1
    50   24   48 1
    51   24   49 1
    52   25   26 1
    53   25   50 1
    54   25   51 1
    55   26   27 1
    56   26   52 1
    57   26   53 1
    58   27   54 1
    59   27   55 1
@<TRIPOS>MOLECULE
ZINC35659397
   36    38     0     0     0
SMALL
USER_CHARGES

@<TRIPOS>ATOM
      1 C1         -0.0167    1.3781    0.0096 C.ar      1 <0>        -0.0972
      2 C2          1.1709    2.0855    0.0021 C.ar      1 <0>        -0.1068
      3 C3          2.3773    1.4107   -0.0130 C.ar      1 <0>        -0.1381
      4 C4          2.3960    0.0285   -0.0201 C.ar      1 <0>        -0.1348
      5 C5          1.2084   -0.6789   -0.0117 C.ar      1 <0>        -0.0987
      6 C6          0.0021   -0.0041    0.0020 C.ar      1 <0>        -0.1046
      7 C7          3.7112   -0.7071   -0.0376 C.3       1 <0>        -0.0981
      8 C8          4.1714   -0.9633    1.3989 C.3       1 <0>         0.1448
      9 H1          3.3868   -1.4885    1.9436 H         1 <0>         0.1905
     10 C9          5.4216   -1.8045    1.3834 C.2       1 <0>         0.2238
     11 N1          5.4898   -3.0720    1.6754 N.2       1 <0>        -0.4756
     12 C10         6.7582   -3.5041    1.5582 C.2       1 <0>         0.3119
     13 N2          7.5105   -2.4980    1.1860 N.2       1 <0>        -0.2861
     14 O1          6.6490   -1.3763    1.0615 O.3       1 <0>        -0.0978
     15 C11         7.2274   -4.8895    1.8090 C.ar      1 <0>        -0.0492
     16 C12         6.3218   -5.8747    2.1973 C.ar      1 <0>        -0.0537
     17 C13         6.7631   -7.1614    2.4295 C.ar      1 <0>        -0.0950
     18 C14         8.1030   -7.4740    2.2776 C.ar      1 <0>        -0.0567
     19 C15         9.0066   -6.4988    1.8925 C.ar      1 <0>        -0.0924
     20 C16         8.5741   -5.2107    1.6515 C.ar      1 <0>        -0.0630
     21 Br1         8.7010   -9.2391    2.5979 Br        1 <0>        -0.0203
     22 N3          4.4519    0.3186    2.0592 N.4       1 <0>        -0.6359
     23 H2         -0.9591    1.9053    0.0259 H         1 <0>         0.1343
     24 H3          1.1563    3.1654    0.0076 H         1 <0>         0.1343
     25 H4          3.3051    1.9634   -0.0196 H         1 <0>         0.1253
     26 H5          1.2231   -1.7588   -0.0176 H         1 <0>         0.1333
     27 H6         -0.9258   -0.5567    0.0082 H         1 <0>         0.1351
     28 H7          3.5884   -1.6586   -0.5549 H         1 <0>         0.1317
     29 H8          4.4573   -0.1052   -0.5563 H         1 <0>         0.1119
     30 H9          5.2763   -5.6316    2.3168 H         1 <0>         0.1486
     31 H10         6.0620   -7.9258    2.7305 H         1 <0>         0.1494
     32 H11        10.0511   -6.7474    1.7760 H         1 <0>         0.1495
     33 H12         9.2792   -4.4516    1.3464 H         1 <0>         0.1435
     34 H13         5.1782    0.8048    1.5550 H         1 <0>         0.4422
     35 H14         3.6148    0.8819    2.0696 H         1 <0>         0.4495
     36 H15         4.7554    0.1497    3.0065 H         1 <0>         0.4447
@<TRIPOS>BOND
     1    1    6 ar
     2    1    2 ar
     3    1   23 1
     4    2    3 ar
     5    2   24 1
     6    3    4 ar
     7    3   25 1
     8    4    5 ar
     9    4    7 1
    10    5    6 ar
    11    5   26 1
    12    6   27 1
    13    7    8 1
    14    7   28 1
    15    7   29 1
    16    8    9 1
    17    8   10 1
    18    8   22 1
    19   10   14 1
    20   10   11 2
    21   11   12 1
    22   12   13 2
    23   12   15 1
    24   13   14 1
    25   15   20 ar
    26   15   16 ar
    27   16   17 ar
    28   16   30 1
    29   17   18 ar
    30   17   31 1
    31   18   19 ar
    32   18   21 1
    33   19   20 ar
    34   19   32 1
    35   20   33 1
    36   22   34 1
    37   22   35 1
    38   22   36 1
@<TRIPOS>MOLECULE
ZINC40740941
   37    39     0     0     0
SMALL
USER_CHARGES

@<TRIPOS>ATOM
      1 C1         -0.7506    2.1921   -1.4711 C.ar      1 <0>        -0.0143
      2 C2          0.0508    3.1405   -2.0784 C.ar      1 <0>        -0.1089
      3 C3          1.3761    2.8535   -2.3514 C.ar      1 <0>        -0.0356
      4 C4          1.8988    1.6174   -2.0164 C.ar      1 <0>        -0.1091
      5 C5          1.0967    0.6696   -1.4091 C.ar      1 <0>        -0.0190
      6 C6         -0.2278    0.9569   -1.1365 C.ar      1 <0>        -0.6738
      7 S1         -1.2498   -0.2516   -0.3622 S.o2      1 <0>         2.6742
      8 O1         -0.3806   -1.1270    0.3431 O.2       1 <0>        -0.9423
      9 O2         -2.3020    0.4566    0.2786 O.2       1 <0>        -0.9429
     10 N1         -1.9477   -1.1475   -1.5675 N.pl3     1 <0>        -1.1407
     11 C7         -1.1137   -1.9796   -2.4383 C.3       1 <0>         0.1419
     12 C8         -1.5780   -3.4361   -2.3481 C.3       1 <0>        -0.1544
     13 C9         -2.9921   -3.5453   -2.9405 C.3       1 <0>         0.0402
     14 H1         -3.4286   -4.5314   -2.7820 H         1 <0>         0.1594
     15 C10        -3.8521   -2.4191   -2.3220 C.3       1 <0>        -0.1760
     16 C11        -3.6472   -1.2076   -3.2551 C.3       1 <0>        -0.1769
     17 C12        -2.6821   -1.7119   -4.3527 C.3       1 <0>         0.0488
     18 H2         -2.8792   -1.2486   -5.3194 H         1 <0>         0.1577
     19 C13        -1.2357   -1.4867   -3.8831 C.3       1 <0>        -0.1615
     20 N2         -2.8935   -3.1986   -4.3833 N.4       1 <0>        -0.5228
     21 Br1         2.4728    4.1503   -3.1829 Br        1 <0>        -0.0188
     22 H3         -1.7842    2.4177   -1.2539 H         1 <0>         0.1507
     23 H4         -0.3579    4.1053   -2.3402 H         1 <0>         0.1479
     24 H5          2.9334    1.3927   -2.2297 H         1 <0>         0.1476
     25 H6          1.5047   -0.2955   -1.1475 H         1 <0>         0.1496
     26 H7         -2.9087   -1.1212   -1.6970 H         1 <0>         0.4384
     27 H8         -0.0740   -1.9108   -2.1183 H         1 <0>         0.1208
     28 H9         -0.8958   -4.0723   -2.9120 H         1 <0>         0.1071
     29 H10        -1.5941   -3.7501   -1.3044 H         1 <0>         0.1257
     30 H11        -4.9023   -2.7104   -2.3036 H         1 <0>         0.1110
     31 H12        -3.5046   -2.1858   -1.3155 H         1 <0>         0.1355
     32 H13        -4.5966   -0.9032   -3.6955 H         1 <0>         0.1104
     33 H14        -3.1989   -0.3786   -2.7075 H         1 <0>         0.1360
     34 H15        -1.0096   -0.4213   -3.9257 H         1 <0>         0.1196
     35 H16        -0.5382   -2.0353   -4.5160 H         1 <0>         0.1098
     36 H17        -2.1110   -3.6718   -4.8097 H         1 <0>         0.4333
     37 H18        -3.7520   -3.4253   -4.8626 H         1 <0>         0.4313
@<TRIPOS>BOND
     1    1    6 ar
     2    1    2 ar
     3    1   22 1
     4    2    3 ar
     5    2   23 1
     6    3    4 ar
     7    3   21 1
     8    4    5 ar
     9    4   24 1
    10    5    6 ar
    11    5   25 1
    12    6    7 1
    13    7    8 2
    14    7    9 2
    15    7   10 1
    16   10   11 1
    17   10   26 1
    18   11   19 1
    19   11   12 1
    20   11   27 1
    21   12   13 1
    22   12   28 1
    23   12   29 1
    24   13   14 1
    25   13   20 1
    26   13   15 1
    27   15   16 1
    28   15   30 1
    29   15   31 1
    30   16   17 1
    31   16   32 1
    32   16   33 1
    33   17   18 1
    34   17   19 1
    35   17   20 1
    36   19   34 1
    37   19   35 1
    38   20   36 1
    39   20   37 1
@<TRIPOS>MOLECULE
ZINC43287688
   43    45     0     0     0
SMALL
USER_CHARGES

@<TRIPOS>ATOM
      1 C1         -0.7825    1.5234   -0.3863 C.3       1 <0>        -0.1741
      2 C2         -0.5983    0.0145   -0.2124 C.3       1 <0>        -0.1386
      3 C3          0.3340   -0.2524    0.9710 C.3       1 <0>         0.0324
      4 H1         -0.0713    0.2190    1.8663 H         1 <0>         0.1446
      5 C4          0.4514   -1.7610    1.1976 C.3       1 <0>         0.1578
      6 H2          0.9351   -2.2212    0.3361 H         1 <0>         0.1299
      7 C5          1.2737   -2.0208    2.4335 C.2       1 <0>        -0.2552
      8 C6          2.5818   -2.3623    2.5322 C.2       1 <0>        -0.1110
      9 C7          3.1322   -2.5527    3.7862 C.2       1 <0>        -0.1435
     10 C8          2.3470   -2.3919    4.8798 C.2       1 <0>        -0.1263
     11 S1          0.7796   -1.9509    4.1476 S.3       1 <0>         0.1475
     12 Br1         4.9523   -3.0305    3.9732 Br        1 <0>        -0.0152
     13 N1         -0.8892   -2.3358    1.3717 N.3       1 <0>        -0.4741
     14 C9         -0.8217   -3.7967    1.5102 C.3       1 <0>         0.1247
     15 C10        -0.5129   -4.4146    0.1709 C.2       1 <0>        -0.0168
     16 C11         0.7085   -4.7630   -0.2719 C.2       1 <0>        -0.2010
     17 C12         0.5363   -5.3004   -1.5683 C.2       1 <0>        -0.2173
     18 C13        -0.7800   -5.2482   -1.8401 C.2       1 <0>        -0.0219
     19 O1         -1.4113   -4.7161   -0.7809 O.3       1 <0>        -0.1646
     20 C14        -1.5771   -1.7294    2.5193 C.3       1 <0>        -0.0190
     21 C15        -2.0404   -2.6631    3.6393 C.3       1 <0>        -0.2035
     22 C16        -3.0660   -2.0358    2.6930 C.3       1 <0>        -0.1488
     23 N2          1.6625    0.3044    0.6830 N.4       1 <0>        -0.6358
     24 H3          0.1853    1.9883   -0.5742 H         1 <0>         0.0495
     25 H4         -1.4467    1.7135   -1.2294 H         1 <0>         0.0860
     26 H5         -1.2174    1.9432    0.5207 H         1 <0>         0.0713
     27 H6         -1.5661   -0.4504   -0.0246 H         1 <0>         0.1292
     28 H7         -0.1634   -0.4054   -1.1194 H         1 <0>         0.0900
     29 H8          3.1849   -2.4843    1.6446 H         1 <0>         0.1451
     30 H9          2.6042   -2.4984    5.9233 H         1 <0>         0.2015
     31 H10        -0.0374   -4.0584    2.2206 H         1 <0>         0.0838
     32 H11        -1.7791   -4.1720    1.8715 H         1 <0>         0.1111
     33 H12         1.6417   -4.6528    0.2604 H         1 <0>         0.1431
     34 H13         1.3128   -5.6796   -2.2161 H         1 <0>         0.1512
     35 H14        -1.2500   -5.5814   -2.7536 H         1 <0>         0.2069
     36 H15        -1.2314   -0.7354    2.8030 H         1 <0>         0.1226
     37 H16        -1.8347   -3.7274    3.5246 H         1 <0>         0.1083
     38 H17        -1.9994   -2.2835    4.6602 H         1 <0>         0.1071
     39 H18        -3.6998   -1.2435    3.0914 H         1 <0>         0.1090
     40 H19        -3.5351   -2.6874    1.9558 H         1 <0>         0.1072
     41 H20         1.5851    1.2992    0.5336 H         1 <0>         0.4394
     42 H21         2.2774    0.1284    1.4635 H         1 <0>         0.4331
     43 H22         2.0377   -0.1321   -0.1457 H         1 <0>         0.4344
@<TRIPOS>BOND
     1    1    2 1
     2    1   24 1
     3    1   25 1
     4    1   26 1
     5    2    3 1
     6    2   27 1
     7    2   28 1
     8    3    4 1
     9    3    5 1
    10    3   23 1
    11    5    6 1
    12    5    7 1
    13    5   13 1
    14    7   11 1
    15    7    8 2
    16    8    9 1
    17    8   29 1
    18    9   10 2
    19    9   12 1
    20   10   11 1
    21   10   30 1
    22   13   14 1
    23   13   20 1
    24   14   15 1
    25   14   31 1
    26   14   32 1
    27   15   19 1
    28   15   16 2
    29   16   17 1
    30   16   33 1
    31   17   18 2
    32   17   34 1
    33   18   19 1
    34   18   35 1
    35   20   22 1
    36   20   21 1
    37   20   36 1
    38   21   22 1
    39   21   37 1
    40   21   38 1
    41   22   39 1
    42   22   40 1
    43   23   41 1
    44   23   42 1
    45   23   43 1
@<TRIPOS>MOLECULE
ZINC53972564
   45    46     0     0     0
SMALL
USER_CHARGES

@<TRIPOS>ATOM
      1 C1          0.7853    0.7192    0.5106 C.ar      1 <0>        -0.1014
      2 C2          2.0674    1.2240    0.6190 C.ar      1 <0>        -0.0855
      3 C3          3.1466    0.3615    0.6874 C.ar      1 <0>        -0.0828
      4 C4          2.9422   -1.0060    0.6473 C.ar      1 <0>        -0.0843
      5 C5          1.6597   -1.5099    0.5389 C.ar      1 <0>        -0.1044
      6 C6          0.5814   -0.6475    0.4706 C.ar      1 <0>        -0.1203
      7 C7         -0.8167   -1.1974    0.3525 C.3       1 <0>         0.1590
      8 H1         -1.4603   -0.4553   -0.1200 H         1 <0>         0.1205
      9 C8         -1.3550   -1.5259    1.7464 C.3       1 <0>        -0.1789
     10 C9         -2.8163   -1.9661    1.6382 C.3       1 <0>        -0.0165
     11 N1         -3.3331   -2.2815    2.9766 N.4       1 <0>        -0.3786
     12 C10        -3.3503   -1.0617    3.7928 C.3       1 <0>        -0.0118
     13 C11        -3.8111   -1.3997    5.2123 C.3       1 <0>        -0.1460
     14 C12        -5.2195   -1.9985    5.1568 C.3       1 <0>        -0.1381
     15 C13        -5.2055   -3.2274    4.2431 C.3       1 <0>        -0.1444
     16 C14        -4.6929   -2.8217    2.8596 C.3       1 <0>         0.0323
     17 H2         -5.3503   -2.0615    2.4376 H         1 <0>         0.1383
     18 C15        -4.6773   -4.0465    1.9428 C.3       1 <0>        -0.1496
     19 C16        -6.1041   -4.5705    1.7675 C.3       1 <0>         0.0791
     20 O1         -6.0785   -5.7726    0.9953 O.3       1 <0>        -0.5700
     21 O2         -0.7959   -2.3849   -0.4422 O.3       1 <0>        -0.5473
     22 Br1         4.9010    1.0515    0.8350 Br        1 <0>        -0.0322
     23 H3         -0.0577    1.3925    0.4617 H         1 <0>         0.1343
     24 H4          2.2266    2.2918    0.6499 H         1 <0>         0.1394
     25 H5          3.7845   -1.6798    0.7003 H         1 <0>         0.1391
     26 H6          1.4999   -2.5776    0.5076 H         1 <0>         0.1301
     27 H7         -0.7644   -2.3311    2.1835 H         1 <0>         0.0934
     28 H8         -1.2880   -0.6412    2.3796 H         1 <0>         0.1004
     29 H9         -3.4068   -1.1610    1.2011 H         1 <0>         0.1324
     30 H10        -2.8833   -2.8508    1.0050 H         1 <0>         0.1431
     31 H11        -2.3479   -0.6350    3.8287 H         1 <0>         0.1320
     32 H12        -4.0363   -0.3390    3.3510 H         1 <0>         0.1297
     33 H13        -3.1256   -2.1222    5.6552 H         1 <0>         0.0878
     34 H14        -3.8249   -0.4924    5.8162 H         1 <0>         0.1132
     35 H15        -5.5300   -2.2932    6.1592 H         1 <0>         0.0961
     36 H16        -5.9150   -1.2582    4.7614 H         1 <0>         0.0826
     37 H17        -4.5489   -3.9878    4.6659 H         1 <0>         0.0903
     38 H18        -6.2159   -3.6265    4.1543 H         1 <0>         0.1133
     39 H19        -4.2707   -3.7676    0.9707 H         1 <0>         0.0980
     40 H20        -4.0564   -4.8247    2.3867 H         1 <0>         0.0954
     41 H21        -6.5383   -4.7763    2.7459 H         1 <0>         0.0578
     42 H22        -6.7058   -3.8211    1.2533 H         1 <0>         0.0560
     43 H23        -6.9508   -6.1616    0.8441 H         1 <0>         0.3969
     44 H24        -0.2414   -3.0901   -0.0811 H         1 <0>         0.3809
     45 H25        -2.7362   -2.9677    3.4134 H         1 <0>         0.4206
@<TRIPOS>BOND
     1    1    6 ar
     2    1    2 ar
     3    1   23 1
     4    2    3 ar
     5    2   24 1
     6    3    4 ar
     7    3   22 1
     8    4    5 ar
     9    4   25 1
    10    5    6 ar
    11    5   26 1
    12    6    7 1
    13    7    8 1
    14    7    9 1
    15    7   21 1
    16    9   10 1
    17    9   27 1
    18    9   28 1
    19   10   11 1
    20   10   29 1
    21   10   30 1
    22   11   16 1
    23   11   12 1
    24   11   45 1
    25   12   13 1
    26   12   31 1
    27   12   32 1
    28   13   14 1
    29   13   33 1
    30   13   34 1
    31   14   15 1
    32   14   35 1
    33   14   36 1
    34   15   16 1
    35   15   37 1
    36   15   38 1
    37   16   17 1
    38   16   18 1
    39   18   19 1
    40   18   39 1
    41   18   40 1
    42   19   20 1
    43   19   41 1
    44   19   42 1
    45   20   43 1
    46   21   44 1
@<TRIPOS>MOLECULE
ZINC62999784
   38    40     0     0     0
SMALL
USER_CHARGES

@<TRIPOS>ATOM
      1 C1         -0.0167    1.3781    0.0096 C.ar      1 <0>        -0.0893
      2 C2          1.1709    2.0855    0.0021 C.ar      1 <0>        -0.1106
      3 C3          2.3773    1.4107   -0.0130 C.ar      1 <0>        -0.0899
      4 C4          2.3960    0.0285   -0.0201 C.ar      1 <0>        -0.1446
      5 C5          1.2084   -0.6789   -0.0117 C.ar      1 <0>        -0.0965
      6 C6          0.0021   -0.0041    0.0020 C.ar      1 <0>        -0.1101
      7 C7          3.7112   -0.7071   -0.0376 C.3       1 <0>         0.0862
      8 H1          4.5034   -0.0434    0.3089 H         1 <0>         0.1572
      9 C8          4.0191   -1.1676   -1.4638 C.3       1 <0>         0.0543
     10 O1          2.9261   -1.9426   -1.9605 O.3       1 <0>        -0.5717
     11 N1          3.6299   -1.8765    0.8478 N.4       1 <0>        -0.5074
     12 C9          4.9457   -2.5251    0.9243 C.3       1 <0>         0.0484
     13 C10         4.8623   -3.7248    1.8326 C.ar      1 <0>        -0.1533
     14 C11         5.1041   -3.5830    3.1866 C.ar      1 <0>        -0.0671
     15 C12         5.0282   -4.6841    4.0238 C.ar      1 <0>         0.0493
     16 C13         4.7079   -5.9334    3.4981 C.ar      1 <0>         0.0998
     17 C14         4.4670   -6.0686    2.1401 C.ar      1 <0>        -0.0859
     18 C15         4.5388   -4.9632    1.3111 C.ar      1 <0>        -0.0525
     19 Br1         4.0317   -7.7626    1.4212 Br        1 <0>         0.0021
     20 O2          4.6961   -6.8445    4.5147 O.3       1 <0>        -0.2850
     21 C16         5.4106   -6.2209    5.5981 C.3       1 <0>         0.2097
     22 O3          5.2169   -4.8125    5.3696 O.3       1 <0>        -0.2949
     23 H2         -0.9591    1.9053    0.0259 H         1 <0>         0.1346
     24 H3          1.1563    3.1654    0.0076 H         1 <0>         0.1359
     25 H4          3.3051    1.9634   -0.0196 H         1 <0>         0.1324
     26 H5          1.2231   -1.7588   -0.0176 H         1 <0>         0.1219
     27 H6         -0.9258   -0.5567    0.0082 H         1 <0>         0.1341
     28 H7          4.1672   -0.2970   -2.1027 H         1 <0>         0.0953
     29 H8          4.9241   -1.7751   -1.4620 H         1 <0>         0.0754
     30 H9          3.0527   -2.2685   -2.8621 H         1 <0>         0.4075
     31 H10         3.3463   -1.5812    1.7699 H         1 <0>         0.4306
     32 H11         5.2520   -2.8442   -0.0719 H         1 <0>         0.1449
     33 H12         5.6761   -1.8196    1.3205 H         1 <0>         0.1465
     34 H13         5.3527   -2.6133    3.5917 H         1 <0>         0.1527
     35 H14         4.3463   -5.0691    0.2537 H         1 <0>         0.1567
     36 H15         4.9849   -6.5153    6.5573 H         1 <0>         0.1493
     37 H16         6.4699   -6.4739    5.5541 H         1 <0>         0.1018
     38 H17         2.9538   -2.5297    0.4811 H         1 <0>         0.4324
@<TRIPOS>BOND
     1    1    6 ar
     2    1    2 ar
     3    1   23 1
     4    2    3 ar
     5    2   24 1
     6    3    4 ar
     7    3   25 1
     8    4    5 ar
     9    4    7 1
    10    5    6 ar
    11    5   26 1
    12    6   27 1
    13    7    8 1
    14    7    9 1
    15    7   11 1
    16    9   10 1
    17    9   28 1
    18    9   29 1
    19   10   30 1
    20   11   12 1
    21   11   31 1
    22   11   38 1
    23   12   13 1
    24   12   32 1
    25   12   33 1
    26   13   18 ar
    27   13   14 ar
    28   14   15 ar
    29   14   34 1
    30   15   22 1
    31   15   16 ar
    32   16   17 ar
    33   16   20 1
    34   17   18 ar
    35   17   19 1
    36   18   35 1
    37   20   21 1
    38   21   22 1
    39   21   36 1
    40   21   37 1
@<TRIPOS>MOLECULE
ZINC10818211
   53    55     0     0     0
SMALL
USER_CHARGES
3-(2-chlorophenyl)-N-(2-dimethylaminoethyl)-N-(6-methylsulfonylbenzothiazol-2-yl)-prop-2-enamide
@<TRIPOS>ATOM
      1 C1          0.5779   -0.5296    1.2471 C.3       1 <0>        -0.0492
      2 C2         -1.3435   -0.5476   -0.2262 C.3       1 <0>        -0.0424
      3 C3         -0.0178    1.4648    0.0101 C.3       1 <0>        -0.0310
      4 C4          1.4175    1.9944   -0.0008 C.3       1 <0>         0.0820
      5 N1          1.3977    3.4592    0.0073 N.am      1 <0>        -0.4980
      6 C5          1.3997    4.1446    1.2094 C.2       1 <0>         0.3494
      7 N2          1.4183    3.6642    2.4312 N.2       1 <0>        -0.5527
      8 C6          1.4177    4.4586    3.5234 C.ar      1 <0>         0.1475
      9 C7          1.4368    4.0726    4.8838 C.ar      1 <0>        -0.0877
     10 C8          1.4336    5.0146    5.8790 C.ar      1 <0>        -0.0152
     11 C9          1.4118    6.3720    5.5924 C.ar      1 <0>        -0.6460
     12 C10         1.3928    6.7853    4.2730 C.ar      1 <0>         0.0518
     13 C11         1.3958    5.8489    3.2695 C.ar      1 <0>        -0.2101
     14 S1          1.3857    5.9090    1.4938 S.3       1 <0>         0.1497
     15 S2          1.4089    7.5570    6.8964 S.o2      1 <0>         2.5012
     16 O1          2.0319    6.8955    7.9889 O.2       1 <0>        -0.9278
     17 O2          1.9903    8.7226    6.3284 O.2       1 <0>        -0.9296
     18 C12        -0.3447    7.8467    7.2592 C.3       1 <0>        -0.6482
     19 C13         1.3774    4.1393   -1.1561 C.2       1 <0>         0.5528
     20 O3          1.3609    5.3562   -1.1494 O.2       1 <0>        -0.4704
     21 C14         1.3752    3.4147   -2.4271 C.2       1 <0>        -0.2485
     22 C15         1.3549    4.0954   -3.5916 C.2       1 <0>         0.0384
     23 C16         1.3527    3.3667   -4.8697 C.ar      1 <0>        -0.0929
     24 C17         1.3716    1.9680   -4.8818 C.ar      1 <0>        -0.0842
     25 C18         1.3695    1.2925   -6.0833 C.ar      1 <0>        -0.1201
     26 C19         1.3487    1.9940   -7.2769 C.ar      1 <0>        -0.0768
     27 C20         1.3299    3.3771   -7.2749 C.ar      1 <0>        -0.1089
     28 C21         1.3259    4.0690   -6.0801 C.ar      1 <0>        -0.0041
     29 Cl1         1.2945    5.8047   -6.0791 Cl        1 <0>        -0.0424
     30 H1         -0.0196   -0.1928    2.0942 H         1 <0>         0.1273
     31 H2          0.5806   -1.6191    1.2146 H         1 <0>         0.1280
     32 H3          1.5999   -0.1668    1.3562 H         1 <0>         0.1234
     33 H4         -1.7182   -0.1978   -1.1882 H         1 <0>         0.1235
     34 H5         -1.3000   -1.6367   -0.2274 H         1 <0>         0.1279
     35 H6         -2.0105   -0.2114    0.5676 H         1 <0>         0.1248
     36 H7         -0.5450    1.8259   -0.8730 H         1 <0>         0.1373
     37 H8         -0.5280    1.8163    0.9069 H         1 <0>         0.1417
     38 H9          1.9447    1.6333    0.8823 H         1 <0>         0.1239
     39 H10         1.9277    1.6428   -0.8976 H         1 <0>         0.1200
     40 H11         1.4536    3.0238    5.1412 H         1 <0>         0.1418
     41 H12         1.4488    4.6931    6.9099 H         1 <0>         0.1555
     42 H13         1.3761    7.8383    4.0336 H         1 <0>         0.1557
     43 H14        -0.8121    6.9105    7.5641 H         1 <0>         0.1332
     44 H15        -0.4335    8.5762    8.0642 H         1 <0>         0.1386
     45 H16        -0.8421    8.2275    6.3672 H         1 <0>         0.1324
     46 H17         1.3899    2.3348   -2.4330 H         1 <0>         0.1353
     47 H18         1.3403    5.1753   -3.5857 H         1 <0>         0.1497
     48 H19         1.3883    1.4188   -3.9520 H         1 <0>         0.1301
     49 H20         1.3838    0.2126   -6.0937 H         1 <0>         0.1373
     50 H21         1.3475    1.4583   -8.2146 H         1 <0>         0.1425
     51 H22         1.3137    3.9169   -8.2101 H         1 <0>         0.1456
     52 N3          0.0188   -0.0126   -0.0197 N.4       1 <0>        -0.3929
     53 H23         0.6175   -0.3157   -0.7968 H         1 <0>         0.4310
@<TRIPOS>BOND
     1    1   30 1
     2    1   31 1
     3    1   32 1
     4    1   52 1
     5    2   33 1
     6    2   34 1
     7    2   35 1
     8    2   52 1
     9    3    4 1
    10    3   36 1
    11    3   37 1
    12    3   52 1
    13    4    5 1
    14    4   38 1
    15    4   39 1
    16    5    6 1
    17    5   19 am
    18    6   14 1
    19    6    7 2
    20    7    8 1
    21    8   13 ar
    22    8    9 ar
    23    9   10 ar
    24    9   40 1
    25   10   11 ar
    26   10   41 1
    27   11   12 ar
    28   11   15 1
    29   12   13 ar
    30   12   42 1
    31   13   14 1
    32   15   16 2
    33   15   17 2
    34   15   18 1
    35   18   43 1
    36   18   44 1
    37   18   45 1
    38   19   20 2
    39   19   21 1
    40   21   22 2
    41   21   46 1
    42   22   23 1
    43   22   47 1
    44   23   28 ar
    45   23   24 ar
    46   24   25 ar
    47   24   48 1
    48   25   26 ar
    49   25   49 1
    50   26   27 ar
    51   26   50 1
    52   27   28 ar
    53   27   51 1
    54   28   29 1
    55   52   53 1
@<TRIPOS>MOLECULE
ZINC14184991
   70    74     0     0     0
SMALL
USER_CHARGES
2-[4-(azepane-1-carbonyl)-1-piperidyl]-1-[(3S)-3-(1,3-benzothiazol-2-yl)-1-piperidyl]ethanone
@<TRIPOS>ATOM
      1 C1         -2.3667    2.5498    2.7034 C.ar      1 <0>        -0.1090
      2 C2         -3.7136    2.3417    2.9663 C.ar      1 <0>        -0.0836
      3 C3         -4.5977    3.3986    2.8588 C.ar      1 <0>        -0.0693
      4 C4         -4.1252    4.6389    2.5041 C.ar      1 <0>        -0.1445
      5 C5         -2.7595    4.8800    2.2301 C.ar      1 <0>         0.0692
      6 C6         -1.8901    3.7727    2.3455 C.ar      1 <0>        -0.0553
      7 N1         -2.4735    6.1544    1.8914 N.2       1 <0>        -0.4921
      8 C7         -3.3859    7.0826    1.8241 C.2       1 <0>         0.1216
      9 S1         -4.8440    6.2420    2.2506 S.3       1 <0>         0.0357
     10 C8         -3.2163    8.5357    1.4625 C.3       1 <0>        -0.0061
     11 H1         -4.1842    9.0355    1.5009 H         1 <0>         0.1038
     12 C9         -2.2585    9.2004    2.4539 C.3       1 <0>        -0.1152
     13 C10        -2.1111   10.6837    2.1072 C.3       1 <0>        -0.1355
     14 C11        -1.5209   10.8189    0.7000 C.3       1 <0>         0.0927
     15 N2         -2.3583   10.0600   -0.2389 N.am      1 <0>        -0.5855
     16 C12        -2.6386    8.6466    0.0480 C.3       1 <0>         0.1210
     17 C13        -2.8595   10.6492   -1.3427 C.2       1 <0>         0.5006
     18 O1         -3.5494   10.0119   -2.1100 O.2       1 <0>        -0.5266
     19 C14        -2.5625   12.0997   -1.6233 C.3       1 <0>        -0.0276
     20 C15        -2.6388   11.7913   -4.0232 C.3       1 <0>        -0.0058
     21 C16        -3.4387   12.1219   -5.2854 C.3       1 <0>        -0.1350
     22 C17        -3.4032   13.6338   -5.5248 C.3       1 <0>        -0.1253
     23 C18        -3.9674   14.3507   -4.2950 C.3       1 <0>        -0.1316
     24 C19        -3.1523   13.9555   -3.0616 C.3       1 <0>         0.0011
     25 C20        -4.2388   13.9722   -6.7324 C.2       1 <0>         0.5127
     26 O2         -5.4244   14.1945   -6.6066 O.2       1 <0>        -0.5254
     27 N3         -3.6686   14.0277   -7.9524 N.am      1 <0>        -0.5963
     28 C21        -4.4720   14.4602   -9.0739 C.3       1 <0>         0.1133
     29 C22        -5.1756   13.2459   -9.7154 C.3       1 <0>        -0.1327
     30 C23        -4.1985   12.4063  -10.4253 C.3       1 <0>        -0.1249
     31 C24        -3.1271   11.7937   -9.5283 C.3       1 <0>        -0.1152
     32 C25        -2.0030   12.7832   -9.3447 C.3       1 <0>        -0.1363
     33 C26        -2.2512   13.6388   -8.0892 C.3       1 <0>         0.1027
     34 H2         -1.6800    1.7202    2.7845 H         1 <0>         0.1389
     35 H3         -4.0685    1.3613    3.2480 H         1 <0>         0.1437
     36 H4         -5.6493    3.2519    3.0561 H         1 <0>         0.1376
     37 H5         -0.8358    3.8984    2.1480 H         1 <0>         0.1346
     38 H6         -2.6553    9.1013    3.4643 H         1 <0>         0.0810
     39 H7         -1.2837    8.7157    2.3976 H         1 <0>         0.0843
     40 H8         -3.0892   11.1637    2.1391 H         1 <0>         0.0749
     41 H9         -1.4472   11.1615    2.8276 H         1 <0>         0.0950
     42 H10        -1.5059   11.8693    0.4094 H         1 <0>         0.0877
     43 H11        -0.5065   10.4202    0.6894 H         1 <0>         0.0922
     44 H12        -1.7154    8.0707   -0.0158 H         1 <0>         0.0955
     45 H13        -3.3611    8.2637   -0.6728 H         1 <0>         0.1050
     46 H14        -2.9383   12.7126   -0.8040 H         1 <0>         0.1602
     47 H15        -1.4855   12.2386   -1.7166 H         1 <0>         0.1616
     48 H16        -1.6031   12.1031   -4.1576 H         1 <0>         0.1302
     49 H17        -2.6740   10.7171   -3.8419 H         1 <0>         0.1467
     50 H18        -4.4714   11.7979   -5.1570 H         1 <0>         0.0993
     51 H19        -2.9995   11.6077   -6.1403 H         1 <0>         0.1154
     52 H20        -2.3742   13.9522   -5.6919 H         1 <0>         0.1101
     53 H21        -5.0085   14.0618   -4.1511 H         1 <0>         0.1034
     54 H22        -3.9060   15.4291   -4.4417 H         1 <0>         0.1178
     55 H23        -3.5603   14.4532   -2.1819 H         1 <0>         0.1355
     56 H24        -2.1141   14.2572   -3.2004 H         1 <0>         0.1347
     57 H25        -5.2244   15.1694   -8.7292 H         1 <0>         0.0857
     58 H26        -3.8327   14.9410   -9.8143 H         1 <0>         0.0808
     59 H27        -5.9303   13.5953  -10.4199 H         1 <0>         0.0782
     60 H28        -5.6565   12.6575   -8.9339 H         1 <0>         0.0646
     61 H29        -3.7075   13.0141  -11.1853 H         1 <0>         0.0631
     62 H30        -4.7360   11.5993  -10.9232 H         1 <0>         0.0621
     63 H31        -2.7405   10.8859   -9.9915 H         1 <0>         0.0680
     64 H32        -3.5600   11.5509   -8.5579 H         1 <0>         0.0587
     65 H33        -1.9461   13.4319  -10.2188 H         1 <0>         0.0746
     66 H34        -1.0617   12.2446   -9.2348 H         1 <0>         0.0809
     67 H35        -1.6411   14.5401   -8.1488 H         1 <0>         0.0717
     68 H36        -1.9538   13.0696   -7.2085 H         1 <0>         0.0780
     69 N4         -3.2471   12.4924   -2.8724 N.4       1 <0>        -0.3832
     70 H37        -4.2372   12.2286   -2.8071 H         1 <0>         0.4361
@<TRIPOS>BOND
     1    1    6 ar
     2    1    2 ar
     3    1   34 1
     4    2    3 ar
     5    2   35 1
     6    3    4 ar
     7    3   36 1
     8    4    9 1
     9    4    5 ar
    10    5    6 ar
    11    5    7 1
    12    6   37 1
    13    7    8 2
    14    8    9 1
    15    8   10 1
    16   10   11 1
    17   10   16 1
    18   10   12 1
    19   12   13 1
    20   12   38 1
    21   12   39 1
    22   13   14 1
    23   13   40 1
    24   13   41 1
    25   14   15 1
    26   14   42 1
    27   14   43 1
    28   15   16 1
    29   15   17 am
    30   16   44 1
    31   16   45 1
    32   17   18 2
    33   17   19 1
    34   19   46 1
    35   19   47 1
    36   19   69 1
    37   20   21 1
    38   20   48 1
    39   20   49 1
    40   20   69 1
    41   21   22 1
    42   21   50 1
    43   21   51 1
    44   22   23 1
    45   22   25 1
    46   22   52 1
    47   23   24 1
    48   23   53 1
    49   23   54 1
    50   24   55 1
    51   24   56 1
    52   24   69 1
    53   25   26 2
    54   25   27 am
    55   27   33 1
    56   27   28 1
    57   28   29 1
    58   28   57 1
    59   28   58 1
    60   29   30 1
    61   29   59 1
    62   29   60 1
    63   30   31 1
    64   30   61 1
    65   30   62 1
    66   31   32 1
    67   31   63 1
    68   31   64 1
    69   32   33 1
    70   32   65 1
    71   32   66 1
    72   33   67 1
    73   33   68 1
    74   69   70 1
@<TRIPOS>MOLECULE
ZINC32597985
   60    65     0     0     0
SMALL
USER_CHARGES
(4E,5Z)-5-benzylidene-4-[(3R)-3-(4-methoxyphenyl)-5-(2-naphthyl)-3,4-dihydropyrazol-2-ium-2-ylidene]thiazolidin-2-one
@<TRIPOS>ATOM
      1 C1          7.0566   -5.3700    6.5306 C.3       1 <0>         0.0176
      2 O1          7.1816   -6.3045    5.4568 O.3       1 <0>        -0.3049
      3 C2          7.0254   -5.8206    4.1965 C.ar      1 <0>         0.1639
      4 C3          7.1338   -6.6723    3.1068 C.ar      1 <0>        -0.1416
      5 C4          6.9750   -6.1779    1.8266 C.ar      1 <0>        -0.0524
      6 C5          6.7088   -4.8353    1.6309 C.ar      1 <0>        -0.2042
      7 C6          6.6059   -3.9833    2.7150 C.ar      1 <0>        -0.0626
      8 C7          6.7578   -4.4739    3.9975 C.ar      1 <0>        -0.2003
      9 C8          6.5365   -4.2985    0.2333 C.3       1 <0>         0.0962
     10 H1          7.0968   -4.9818   -0.4217 H         1 <0>         0.1415
     11 C9          5.0387   -4.1406   -0.1112 C.3       1 <0>        -0.1384
     12 C10         4.9252   -2.6478   -0.3551 C.2       1 <0>         0.2586
     13 N1          6.1012   -2.1189   -0.1865 N.2       1 <0>        -0.3334
     14 N2          7.0419   -2.9195    0.1389 N.pl3     1 <0>        -0.2850
     15 C11         8.2939   -2.5609    0.3548 C.cat     1 <0>         0.5694
     16 C12         8.7337   -1.1584    0.2428 C.2       1 <0>        -0.2309
     17 C13         8.0131   -0.0507   -0.0739 C.2       1 <0>         0.1560
     18 C14         8.6244    1.2804    0.0386 C.ar      1 <0>        -0.1325
     19 C15         9.8785    1.4301    0.6424 C.ar      1 <0>        -0.0662
     20 C16        10.4476    2.6820    0.7388 C.ar      1 <0>        -0.1191
     21 C17         9.7774    3.7906    0.2509 C.ar      1 <0>        -0.0603
     22 C18         8.5344    3.6521   -0.3425 C.ar      1 <0>        -0.1241
     23 C19         7.9536    2.4067   -0.4521 C.ar      1 <0>        -0.0543
     24 S1         10.4696   -1.3078    0.6371 S.3       1 <0>         0.0488
     25 C20        10.5232   -3.0704    0.9078 C.2       1 <0>         0.5178
     26 O2         11.4806   -3.7555    1.2142 O.2       1 <0>        -0.3775
     27 N3          9.2512   -3.4626    0.6986 N.am      1 <0>        -0.6634
     28 C21         3.7003   -1.9256   -0.7241 C.ar      1 <0>        -0.0770
     29 C22         2.4904   -2.6323   -0.8792 C.ar      1 <0>        -0.0876
     30 C23         1.3475   -1.9865   -1.2190 C.ar      1 <0>        -0.0940
     31 C24         1.3577   -0.5933   -1.4217 C.ar      1 <0>        -0.0217
     32 C25         0.1855    0.0949   -1.7744 C.ar      1 <0>        -0.1135
     33 C26         0.2248    1.4428   -1.9647 C.ar      1 <0>        -0.0894
     34 C27         1.4133    2.1548   -1.8148 C.ar      1 <0>        -0.1088
     35 C28         2.5695    1.5228   -1.4739 C.ar      1 <0>        -0.0975
     36 C29         2.5678    0.1308   -1.2691 C.ar      1 <0>        -0.0688
     37 C30         3.7415   -0.5507   -0.9175 C.ar      1 <0>        -0.0215
     38 H2          7.2045   -5.8902    7.4885 H         1 <0>         0.1140
     39 H3          6.0535   -4.9191    6.5093 H         1 <0>         0.0630
     40 H4          7.8156   -4.5814    6.4206 H         1 <0>         0.0615
     41 H5          7.3417   -7.7211    3.2591 H         1 <0>         0.1478
     42 H6          7.0593   -6.8405    0.9780 H         1 <0>         0.1440
     43 H7          6.4026   -2.9341    2.5593 H         1 <0>         0.1189
     44 H8          6.6726   -3.8089    4.8442 H         1 <0>         0.1400
     45 H9          4.8020   -4.7415   -1.0016 H         1 <0>         0.1433
     46 H10         4.4290   -4.4858    0.7368 H         1 <0>         0.1422
     47 H11         6.9720   -0.1507   -0.4145 H         1 <0>         0.1850
     48 H12        10.4005    0.5668    1.0279 H         1 <0>         0.1314
     49 H13        11.4170    2.7987    1.2003 H         1 <0>         0.1413
     50 H14        10.2270    4.7691    0.3333 H         1 <0>         0.1406
     51 H15         8.0184    4.5221   -0.7209 H         1 <0>         0.1417
     52 H16         6.9836    2.3004   -0.9150 H         1 <0>         0.1398
     53 H17         8.9912   -4.5257    0.8089 H         1 <0>         0.4567
     54 H18         2.4735   -3.7011   -0.7253 H         1 <0>         0.1348
     55 H19         0.4281   -2.5415   -1.3338 H         1 <0>         0.1418
     56 H20        -0.7435   -0.4427   -1.8946 H         1 <0>         0.1366
     57 H21        -0.6781    1.9674   -2.2403 H         1 <0>         0.1332
     58 H22         1.4170    3.2233   -1.9715 H         1 <0>         0.1327
     59 H23         3.4835    2.0870   -1.3611 H         1 <0>         0.1331
     60 H24         4.6695   -0.0113   -0.7977 H         1 <0>         0.1377
@<TRIPOS>BOND
     1    1    2 1
     2    1   38 1
     3    1   39 1
     4    1   40 1
     5    2    3 1
     6    3    8 ar
     7    3    4 ar
     8    4    5 ar
     9    4   41 1
    10    5    6 ar
    11    5   42 1
    12    6    7 ar
    13    6    9 1
    14    7    8 ar
    15    7   43 1
    16    8   44 1
    17    9   10 1
    18    9   14 1
    19    9   11 1
    20   11   12 1
    21   11   45 1
    22   11   46 1
    23   12   13 2
    24   12   28 1
    25   13   14 1
    26   14   15 2
    27   15   27 1
    28   15   16 1
    29   16   17 2
    30   16   24 1
    31   17   18 1
    32   17   47 1
    33   18   23 ar
    34   18   19 ar
    35   19   20 ar
    36   19   48 1
    37   20   21 ar
    38   20   49 1
    39   21   22 ar
    40   21   50 1
    41   22   23 ar
    42   22   51 1
    43   23   52 1
    44   24   25 1
    45   25   26 2
    46   25   27 am
    47   27   53 1
    48   28   37 ar
    49   28   29 ar
    50   29   30 ar
    51   29   54 1
    52   30   31 ar
    53   30   55 1
    54   31   36 ar
    55   31   32 ar
    56   32   33 ar
    57   32   56 1
    58   33   34 ar
    59   33   57 1
    60   34   35 ar
    61   34   58 1
    62   35   36 ar
    63   35   59 1
    64   36   37 ar
    65   37   60 1
@<TRIPOS>MOLECULE
ZINC39316185
   51    55     0     0     0
SMALL
USER_CHARGES

@<TRIPOS>ATOM
      1 C1         -0.7463   -2.8898    1.6246 C.3       1 <0>        -0.0917
      2 C2         -0.4240   -1.6126    0.8926 C.2       1 <0>         0.0108
      3 C3         -0.3721   -1.4602   -0.4463 C.2       1 <0>        -0.1725
      4 C4         -0.0393   -0.1159   -0.7052 C.2       1 <0>        -0.1812
      5 C5          0.0996    0.5020    0.4853 C.2       1 <0>         0.0341
      6 N1         -0.1403   -0.4103    1.4697 N.pl3     1 <0>        -0.4327
      7 C6         -0.0970   -0.1437    2.9096 C.3       1 <0>         0.1675
      8 H1         -0.2581    0.9204    3.0824 H         1 <0>         0.1318
      9 C7         -1.1788   -0.9218    3.5871 C.2       1 <0>        -0.1854
     10 C8         -0.9338   -1.5244    4.7343 C.2       1 <0>        -0.1007
     11 S1          0.7761   -1.1829    5.1098 S.3       1 <0>        -0.1364
     12 C9          1.2957   -0.5462    3.4622 C.3       1 <0>        -0.0395
     13 H2          1.9528    0.3183    3.5580 H         1 <0>         0.1360
     14 C10         1.9401   -1.6443    2.6138 C.3       1 <0>        -0.0309
     15 H3          1.2958   -2.5223    2.5696 H         1 <0>         0.1843
     16 C11         3.3083   -2.0106    3.1608 C.2       1 <0>        -0.1034
     17 C12         4.1526   -1.7075    2.1489 C.2       1 <0>         0.0998
     18 N2          3.4582   -1.2139    1.0869 N.2       1 <0>        -0.1771
     19 N3          2.2359   -1.1483    1.2597 N.2       1 <0>        -0.0567
     20 N4          5.5074   -1.8727    2.1869 N.pl3     1 <0>        -0.5014
     21 C13         6.2258   -1.6783    1.0989 C.2       1 <0>         0.4177
     22 C14         5.6728   -1.8946   -0.2573 C.ar      1 <0>        -0.1424
     23 C15         4.4633   -2.5557   -0.4480 C.ar      1 <0>        -0.0386
     24 C16         3.9838   -2.7414   -1.7303 C.ar      1 <0>         0.1162
     25 C17         4.7066   -2.2714   -2.8182 C.ar      1 <0>        -0.0516
     26 C18         5.9056   -1.6141   -2.6366 C.ar      1 <0>        -0.0881
     27 C19         6.4034   -1.4142   -1.3545 C.ar      1 <0>         0.1400
     28 O1          7.5692   -0.7604   -1.1697 O.3       1 <0>        -0.1721
     29 C20         8.2260   -0.7991   -0.0125 C.2       1 <0>         0.2825
     30 C21         7.6372   -1.2232    1.1574 C.2       1 <0>        -0.3593
     31 C22         8.3816   -1.2300    2.4165 C.2       1 <0>         0.4065
     32 O2          7.8458   -1.6123    3.4363 O.2       1 <0>        -0.4553
     33 F1          2.8102   -3.3816   -1.9257 F         1 <0>        -0.1066
     34 C23         0.4543    1.9520    0.6920 C.3       1 <0>        -0.0865
     35 H4         -1.8145   -2.9266    1.8380 H         1 <0>         0.0767
     36 H5         -0.4699   -3.7432    1.0054 H         1 <0>         0.0796
     37 H6         -0.1875   -2.9234    2.5599 H         1 <0>         0.0545
     38 H7         -0.5526   -2.2277   -1.1844 H         1 <0>         0.1320
     39 H8          0.0823    0.3365   -1.6783 H         1 <0>         0.1324
     40 H9         -2.1588   -0.9900    3.1383 H         1 <0>         0.1529
     41 H10        -1.6264   -2.1052    5.3253 H         1 <0>         0.1888
     42 H11         3.5506   -2.4176    4.1314 H         1 <0>         0.1977
     43 H12         3.9036   -2.9213    0.4002 H         1 <0>         0.1497
     44 H13         4.3263   -2.4223   -3.8176 H         1 <0>         0.1762
     45 H14         6.4582   -1.2541   -3.4919 H         1 <0>         0.1775
     46 H15         9.2579   -0.4814    0.0100 H         1 <0>         0.2490
     47 H16         9.4081   -0.8949    2.4388 H         1 <0>         0.1515
     48 H17        -0.4581    2.5347    0.8188 H         1 <0>         0.0716
     49 H18         1.0752    2.0509    1.5824 H         1 <0>         0.0527
     50 H19         1.0023    2.3193   -0.1757 H         1 <0>         0.0815
     51 H20         5.9412   -2.1331    3.0144 H         1 <0>         0.4586
@<TRIPOS>BOND
     1    1    2 1
     2    1   35 1
     3    1   36 1
     4    1   37 1
     5    2    6 1
     6    2    3 2
     7    3    4 1
     8    3   38 1
     9    4    5 2
    10    4   39 1
    11    5    6 1
    12    5   34 1
    13    6    7 1
    14    7    8 1
    15    7   12 1
    16    7    9 1
    17    9   10 2
    18    9   40 1
    19   10   11 1
    20   10   41 1
    21   11   12 1
    22   12   13 1
    23   12   14 1
    24   14   15 1
    25   14   19 1
    26   14   16 1
    27   16   17 2
    28   16   42 1
    29   17   18 1
    30   17   20 1
    31   18   19 2
    32   20   21 2
    33   20   51 1
    34   21   30 1
    35   21   22 1
    36   22   27 ar
    37   22   23 ar
    38   23   24 ar
    39   23   43 1
    40   24   25 ar
    41   24   33 1
    42   25   26 ar
    43   25   44 1
    44   26   27 ar
    45   26   45 1
    46   27   28 1
    47   28   29 1
    48   29   30 2
    49   29   46 1
    50   30   31 1
    51   31   32 2
    52   31   47 1
    53   34   48 1
    54   34   49 1
    55   34   50 1
@<TRIPOS>MOLECULE
ZINC63141659
   60    65     0     0     0
SMALL
USER_CHARGES

@<TRIPOS>ATOM
      1 C1          3.0517   -4.3055   -2.6612 C.3       1 <0>         0.0222
      2 O1          2.0433   -3.8159   -1.7750 O.3       1 <0>        -0.3212
      3 C2          1.6366   -2.5314   -1.9525 C.ar      1 <0>         0.1471
      4 C3          2.1926   -1.7598   -2.9629 C.ar      1 <0>        -0.1964
      5 C4          1.7772   -0.4547   -3.1416 C.ar      1 <0>        -0.0618
      6 C5          0.8081    0.0831   -2.3146 C.ar      1 <0>        -0.1431
      7 C6          0.2530   -0.6834   -1.3070 C.ar      1 <0>        -0.0663
      8 C7          0.6609   -1.9913   -1.1277 C.ar      1 <0>        -0.1364
      9 C8          0.0508   -2.8283   -0.0330 C.3       1 <0>         0.2244
     10 H1         -0.8436   -2.3283    0.3385 H         1 <0>         0.0941
     11 C9          1.0567   -2.9619    1.1098 C.3       1 <0>         0.0895
     12 H2          2.0572   -3.1785    0.7355 H         1 <0>         0.1819
     13 C10         0.5339   -4.0902    1.9959 C.2       1 <0>         0.0650
     14 C11         0.3043   -3.5631    3.1905 C.ar      1 <0>        -0.1525
     15 C12        -0.1756   -4.1588    4.4484 C.ar      1 <0>         0.0063
     16 C13        -0.3034   -3.3111    5.5031 C.ar      1 <0>        -0.1603
     17 C14        -0.0060   -1.9466    5.4332 C.ar      1 <0>         0.0605
     18 C15         0.4420   -1.3151    4.3191 C.ar      1 <0>        -0.2082
     19 C16         0.6184   -2.1028    3.1440 C.ar      1 <0>         0.3377
     20 N1          1.0471   -1.7551    1.9472 N.pl3     1 <0>        -0.5809
     21 C17         0.3421   -5.4806    1.4551 C.3       1 <0>        -0.0789
     22 C18        -0.2479   -5.4137    0.0703 C.3       1 <0>         0.1261
     23 H3          0.4271   -5.9939   -0.5589 H         1 <0>         0.1101
     24 N2         -0.3238   -4.1238   -0.5806 N.am      1 <0>        -0.6021
     25 C19        -0.8605   -4.1347   -1.8452 C.2       1 <0>         0.5151
     26 O2         -0.9172   -3.1282   -2.5195 O.2       1 <0>        -0.4686
     27 C20        -1.3773   -5.4623   -2.3578 C.3       1 <0>         0.0920
     28 N3         -2.1446   -6.1129   -1.2797 N.am      1 <0>        -0.6066
     29 C21        -1.5778   -6.1162   -0.0388 C.2       1 <0>         0.5121
     30 O3         -2.1055   -6.6520    0.9127 O.2       1 <0>        -0.4967
     31 C22        -3.4530   -6.7235   -1.5276 C.3       1 <0>         0.1637
     32 C23        -3.2684   -8.1699   -1.9083 C.ar      1 <0>        -0.1335
     33 C24        -3.1055   -8.5193   -3.2359 C.ar      1 <0>        -0.0738
     34 C25        -2.9356   -9.8453   -3.5861 C.ar      1 <0>        -0.1557
     35 C26        -2.9285  -10.8240   -2.6068 C.ar      1 <0>         0.1119
     36 C27        -3.0918  -10.4729   -1.2775 C.ar      1 <0>        -0.1556
     37 C28        -3.2562   -9.1457   -0.9291 C.ar      1 <0>        -0.0649
     38 F1         -2.7630  -12.1207   -2.9481 F         1 <0>        -0.1345
     39 H4          2.6900   -4.2521   -3.6881 H         1 <0>         0.0611
     40 H5          3.9505   -3.6972   -2.5605 H         1 <0>         0.0600
     41 H6          3.2837   -5.3408   -2.4111 H         1 <0>         0.1050
     42 H7          2.9497   -2.1793   -3.6088 H         1 <0>         0.1331
     43 H8          2.2099    0.1464   -3.9277 H         1 <0>         0.1315
     44 H9          0.4847    1.1038   -2.4560 H         1 <0>         0.1309
     45 H10        -0.5035   -0.2610   -0.6622 H         1 <0>         0.1255
     46 H11        -0.4128   -5.2094    4.5284 H         1 <0>         0.1729
     47 H12        -0.6529   -3.7119    6.4431 H         1 <0>         0.1571
     48 H13        -0.1418   -1.3553    6.3267 H         1 <0>         0.1594
     49 H14         0.6561   -0.2566    4.3221 H         1 <0>         0.1701
     50 H15         1.3051   -5.9895    1.4144 H         1 <0>         0.1445
     51 H16        -0.3315   -6.0340    2.1094 H         1 <0>         0.1416
     52 H17        -2.0245   -5.2956   -3.2189 H         1 <0>         0.1304
     53 H18        -0.5380   -6.0962   -2.6440 H         1 <0>         0.1099
     54 H19        -4.0604   -6.6601   -0.6247 H         1 <0>         0.1010
     55 H20        -3.9527   -6.1951   -2.3395 H         1 <0>         0.0983
     56 H21        -3.1114   -7.7557   -3.9996 H         1 <0>         0.1327
     57 H22        -2.8087  -10.1181   -4.6234 H         1 <0>         0.1392
     58 H23        -3.0868  -11.2355   -0.5127 H         1 <0>         0.1387
     59 H24        -3.3791   -8.8711    0.1082 H         1 <0>         0.1375
     60 H25         1.3082   -0.8659    1.6604 H         1 <0>         0.4579
@<TRIPOS>BOND
     1    1    2 1
     2    1   39 1
     3    1   40 1
     4    1   41 1
     5    2    3 1
     6    3    8 ar
     7    3    4 ar
     8    4    5 ar
     9    4   42 1
    10    5    6 ar
    11    5   43 1
    12    6    7 ar
    13    6   44 1
    14    7    8 ar
    15    7   45 1
    16    8    9 1
    17    9   10 1
    18    9   24 1
    19    9   11 1
    20   11   12 1
    21   11   20 1
    22   11   13 1
    23   13   14 2
    24   13   21 1
    25   14   19 ar
    26   14   15 ar
    27   15   16 ar
    28   15   46 1
    29   16   17 ar
    30   16   47 1
    31   17   18 ar
    32   17   48 1
    33   18   19 ar
    34   18   49 1
    35   19   20 2
    36   20   60 1
    37   21   22 1
    38   21   50 1
    39   21   51 1
    40   22   23 1
    41   22   29 1
    42   22   24 1
    43   24   25 am
    44   25   26 2
    45   25   27 1
    46   27   28 1
    47   27   52 1
    48   27   53 1
    49   28   29 am
    50   28   31 1
    51   29   30 2
    52   31   32 1
    53   31   54 1
    54   31   55 1
    55   32   37 ar
    56   32   33 ar
    57   33   34 ar
    58   33   56 1
    59   34   35 ar
    60   34   57 1
    61   35   36 ar
    62   35   38 1
    63   36   37 ar
    64   36   58 1
    65   37   59 1
@<TRIPOS>MOLECULE
ZINC09334823
   51    56     0     0     0
SMALL
USER_CHARGES
1-naphthyl-dioxo-BLAHcarboxamide
@<TRIPOS>ATOM
      1 C1         -2.4562    6.8198    2.7339 C.ar      1 <0>        -0.1136
      2 C2         -2.0962    5.4786    2.8502 C.ar      1 <0>        -0.0901
      3 C3         -1.3531    4.8668    1.8874 C.ar      1 <0>        -0.1222
      4 C4         -0.9422    5.5946    0.7594 C.ar      1 <0>        -0.0294
      5 C5         -1.3080    6.9582    0.6400 C.ar      1 <0>        -0.0504
      6 C6         -2.0757    7.5562    1.6545 C.ar      1 <0>        -0.0901
      7 C7         -0.8966    7.6883   -0.4878 C.ar      1 <0>        -0.0669
      8 C8         -0.1524    7.0836   -1.4544 C.ar      1 <0>        -0.1199
      9 C9          0.2166    5.7460   -1.3455 C.ar      1 <0>        -0.0683
     10 C10        -0.1712    4.9945   -0.2580 C.ar      1 <0>         0.0913
     11 N1          0.2013    3.6493   -0.1607 N.am      1 <0>        -0.5385
     12 C11        -0.5544    2.6094   -0.6544 C.2       1 <0>         0.5915
     13 O1         -1.4599    2.6606   -1.4589 O.2       1 <0>        -0.4085
     14 C12        -0.0175    1.4416    0.0100 C.3       1 <0>        -0.1718
     15 H1         -0.2934    1.6495    1.0438 H         1 <0>         0.1293
     16 C13         0.0021   -0.0041    0.0020 C.3       1 <0>         0.1207
     17 H2          0.4611   -0.2697   -0.9503 H         1 <0>         0.1092
     18 C14        -1.2907   -0.7307    0.0146 C.ar      1 <0>        -0.0806
     19 C15        -2.3465   -0.3948   -0.8000 C.ar      1 <0>        -0.0853
     20 C16        -3.5275   -1.1145   -0.7416 C.ar      1 <0>        -0.0774
     21 C17        -3.6556   -2.1781    0.1346 C.ar      1 <0>        -0.0977
     22 C18        -2.6057   -2.5292    0.9581 C.ar      1 <0>        -0.0671
     23 C19        -1.4141   -1.8087    0.9092 C.ar      1 <0>        -0.0968
     24 C20        -0.2755   -2.1616    1.7733 C.2       1 <0>        -0.0109
     25 C21         0.8498   -1.4472    1.8056 C.2       1 <0>        -0.0758
     26 C22         2.0440    0.7491    0.9831 C.3       1 <0>         0.0421
     27 H3          2.9963    0.3473    0.6368 H         1 <0>         0.1676
     28 C23         1.5286    1.7936   -0.0029 C.3       1 <0>        -0.1561
     29 H4          1.9882    1.7007   -0.9869 H         1 <0>         0.1841
     30 C24         1.3562    3.2225    0.4348 C.2       1 <0>         0.5469
     31 O2          2.0871    3.8611    1.1612 O.2       1 <0>        -0.4092
     32 C25         2.2100    1.3661    2.3479 C.2       1 <0>         0.5279
     33 O3          1.3508    1.2146    3.1904 O.2       1 <0>        -0.5050
     34 N2          3.3132    2.0862    2.6323 N.am      1 <0>        -0.8041
     35 H5         -3.0456    7.2819    3.5121 H         1 <0>         0.1330
     36 H6         -2.4110    4.9164    3.7170 H         1 <0>         0.1281
     37 H7         -1.0807    3.8269    1.9910 H         1 <0>         0.1079
     38 H8         -2.3623    8.5947    1.5776 H         1 <0>         0.1386
     39 H9         -1.1707    8.7281   -0.5880 H         1 <0>         0.1415
     40 H10         0.1596    7.6521   -2.3180 H         1 <0>         0.1404
     41 H11         0.8110    5.2912   -2.1240 H         1 <0>         0.1312
     42 H12        -2.2538    0.4328   -1.4877 H         1 <0>         0.1467
     43 H13        -4.3532   -0.8448   -1.3834 H         1 <0>         0.1459
     44 H14        -4.5801   -2.7351    0.1737 H         1 <0>         0.1450
     45 H15        -2.7072   -3.3613    1.6390 H         1 <0>         0.1446
     46 H16        -0.3550   -3.0332    2.4061 H         1 <0>         0.1797
     47 H17         1.6478   -1.7610    2.4621 H         1 <0>         0.2030
     48 H18         4.0003    2.2074    1.9585 H         1 <0>         0.4124
     49 H19         3.4200    2.4834    3.5108 H         1 <0>         0.4283
     50 N3          1.1464   -0.4507    0.6972 N.4       1 <0>        -0.3483
     51 H20         1.6723   -1.0058    0.0120 H         1 <0>         0.4470
@<TRIPOS>BOND
     1    1    6 ar
     2    1    2 ar
     3    1   35 1
     4    2    3 ar
     5    2   36 1
     6    3    4 ar
     7    3   37 1
     8    4   10 ar
     9    4    5 ar
    10    5    6 ar
    11    5    7 ar
    12    6   38 1
    13    7    8 ar
    14    7   39 1
    15    8    9 ar
    16    8   40 1
    17    9   10 ar
    18    9   41 1
    19   10   11 1
    20   11   30 am
    21   11   12 am
    22   12   13 2
    23   12   14 1
    24   14   15 1
    25   14   28 1
    26   14   16 1
    27   16   17 1
    28   16   18 1
    29   16   50 1
    30   18   23 ar
    31   18   19 ar
    32   19   20 ar
    33   19   42 1
    34   20   21 ar
    35   20   43 1
    36   21   22 ar
    37   21   44 1
    38   22   23 ar
    39   22   45 1
    40   23   24 1
    41   24   25 2
    42   24   46 1
    43   25   47 1
    44   25   50 1
    45   26   27 1
    46   26   28 1
    47   26   32 1
    48   26   50 1
    49   28   29 1
    50   28   30 1
    51   30   31 2
    52   32   33 2
    53   32   34 am
    54   34   48 1
    55   34   49 1
    56   50   51 1
@<TRIPOS>MOLECULE
ZINC34680565
   47    49     0     0     0
SMALL
USER_CHARGES

@<TRIPOS>ATOM
      1 C1         -0.4424    1.5349    0.1708 C.3       1 <0>        -0.1476
      2 C2         -0.1847    0.0516    0.1037 C.ar      1 <0>         0.0330
      3 C3          0.0603   -0.5531   -1.1150 C.ar      1 <0>        -0.6281
      4 C4          0.2967   -1.9135   -1.1767 C.ar      1 <0>        -0.0196
      5 C5          0.2883   -2.6704   -0.0196 C.ar      1 <0>        -0.1352
      6 C6          0.0436   -2.0670    1.1993 C.ar      1 <0>        -0.0546
      7 C7         -0.1876   -0.7042    1.2623 C.ar      1 <0>        -0.0640
      8 Cl1        -0.4886    0.0556    2.7939 Cl        1 <0>        -0.0568
      9 S1          0.0706    0.4105   -2.5901 S.o2      1 <0>         2.6299
     10 O1          0.8972    1.5374   -2.3333 O.2       1 <0>        -0.9994
     11 O2          0.3204   -0.4893   -3.6612 O.2       1 <0>        -1.0083
     12 N1         -1.4655    0.9898   -2.8072 N.2       1 <0>        -1.0505
     13 C8         -1.7594    1.7978   -3.9127 C.ar      1 <0>         0.2583
     14 C9         -0.7667    2.1149   -4.8388 C.ar      1 <0>        -0.1114
     15 C10        -1.1017    2.9158   -5.9151 C.ar      1 <0>        -0.1173
     16 C11        -2.4087    3.3753   -6.0375 C.ar      1 <0>         0.2956
     17 N2         -3.3255    3.0546   -5.1388 N.ar      1 <0>        -0.4355
     18 C12        -3.0424    2.2874   -4.1027 C.ar      1 <0>         0.0335
     19 N3         -2.7566    4.1827   -7.1182 N.pl3     1 <0>        -0.6285
     20 C13        -1.7634    4.4071   -8.1880 C.3       1 <0>         0.1102
     21 C14        -2.4240    4.3507   -9.5774 C.3       1 <0>        -0.1602
     22 C15        -3.4506    3.2399   -9.6020 C.3       1 <0>        -0.0106
     23 N4         -4.7625    3.7881   -9.2654 N.4       1 <0>        -0.4866
     24 C16        -5.0570    3.8227   -7.8843 C.3       1 <0>        -0.0583
     25 C17        -4.0813    4.7673   -7.1551 C.3       1 <0>         0.0887
     26 H1          0.5026    2.0624    0.3002 H         1 <0>         0.0946
     27 H2         -0.9181    1.8631   -0.7534 H         1 <0>         0.0879
     28 H3         -1.0982    1.7519    1.0140 H         1 <0>         0.0840
     29 H4          0.4877   -2.3856   -2.1291 H         1 <0>         0.1471
     30 H5          0.4728   -3.7334   -0.0685 H         1 <0>         0.1431
     31 H6          0.0367   -2.6583    2.1030 H         1 <0>         0.1426
     32 H7          0.2404    1.7441   -4.7181 H         1 <0>         0.1491
     33 H8         -0.3576    3.1815   -6.6514 H         1 <0>         0.1667
     34 H9         -3.8180    2.0422   -3.3923 H         1 <0>         0.2017
     35 H10        -1.3038    5.3858   -8.0499 H         1 <0>         0.0953
     36 H11        -0.9924    3.6390   -8.1271 H         1 <0>         0.1084
     37 H12        -2.9131    5.3022   -9.7862 H         1 <0>         0.0941
     38 H13        -1.6632    4.1592  -10.3341 H         1 <0>         0.1320
     39 H14        -3.4852    2.7983  -10.5979 H         1 <0>         0.1434
     40 H15        -3.1777    2.4760   -8.8739 H         1 <0>         0.1334
     41 H16        -4.8165    4.7289   -9.6261 H         1 <0>         0.4259
     42 H17        -6.0781    4.1762   -7.7416 H         1 <0>         0.1544
     43 H18        -4.9637    2.8188   -7.4700 H         1 <0>         0.1286
     44 H19        -4.4341    4.9299   -6.1367 H         1 <0>         0.1142
     45 H20        -4.0416    5.7216   -7.6804 H         1 <0>         0.1189
     46 H21        -5.4674    3.2333   -9.7274 H         1 <0>         0.4339
     47 H22        -4.2299    3.3884   -5.2465 H         1 <0>         0.4239
@<TRIPOS>BOND
     1    1    2 1
     2    1   26 1
     3    1   27 1
     4    1   28 1
     5    2    7 ar
     6    2    3 ar
     7    3    4 ar
     8    3    9 1
     9    4    5 ar
    10    4   29 1
    11    5    6 ar
    12    5   30 1
    13    6    7 ar
    14    6   31 1
    15    7    8 1
    16    9   10 2
    17    9   11 2
    18    9   12 1
    19   12   13 1
    20   13   18 ar
    21   13   14 ar
    22   14   15 ar
    23   14   32 1
    24   15   16 ar
    25   15   33 1
    26   16   17 ar
    27   16   19 1
    28   17   18 ar
    29   17   47 1
    30   18   34 1
    31   19   25 1
    32   19   20 1
    33   20   21 1
    34   20   35 1
    35   20   36 1
    36   21   22 1
    37   21   37 1
    38   21   38 1
    39   22   23 1
    40   22   39 1
    41   22   40 1
    42   23   24 1
    43   23   41 1
    44   23   46 1
    45   24   25 1
    46   24   42 1
    47   24   43 1
    48   25   44 1
    49   25   45 1
@<TRIPOS>MOLECULE
ZINC39636149
   67    71     0     0     0
SMALL
USER_CHARGES

@<TRIPOS>ATOM
      1 C1         -0.0143    1.5919    4.7336 C.3       1 <0>        -0.1458
      2 C2         -0.5123    1.4533    3.2936 C.3       1 <0>        -0.1024
      3 H1         -1.5352    1.0767    3.2975 H         1 <0>         0.0911
      4 C3         -0.4748    2.8202    2.6072 C.3       1 <0>        -0.1132
      5 C4         -0.9728    2.6816    1.1672 C.3       1 <0>        -0.1253
      6 C5         -0.0725    1.7048    0.4080 C.3       1 <0>        -0.1175
      7 C6         -0.1100    0.3380    1.0944 C.3       1 <0>        -0.1342
      8 C7          0.3879    0.4766    2.5344 C.3       1 <0>         0.1517
      9 H2          0.3612   -0.4972    3.0234 H         1 <0>         0.0912
     10 N1          1.7627    0.9828    2.5291 N.am      1 <0>        -0.7199
     11 C8          2.7952    0.1276    2.3912 C.2       1 <0>         0.5208
     12 O1          2.5862   -1.0610    2.2714 O.2       1 <0>        -0.5187
     13 C9          4.2093    0.6484    2.3857 C.3       1 <0>        -0.1144
     14 H3          4.2564    1.6115    1.8776 H         1 <0>         0.1094
     15 C10         5.1538   -0.3665    1.7035 C.3       1 <0>         0.0898
     16 N2          6.4083   -0.2972    2.4892 N.am      1 <0>        -0.6047
     17 C11         5.9561   -0.1677    3.8952 C.3       1 <0>         0.1084
     18 C12         4.7387    0.7755    3.8241 C.3       1 <0>        -0.0736
     19 C13         3.6714    0.3343    4.8209 C.3       1 <0>        -0.1498
     20 C14         4.1998    0.5248    6.2455 C.3       1 <0>        -0.0081
     21 N3          4.5426    1.9363    6.4576 N.4       1 <0>        -0.5042
     22 C15         5.6347    2.3269    5.5580 C.3       1 <0>        -0.0114
     23 C16         5.1669    2.2127    4.1044 C.3       1 <0>        -0.1338
     24 C17         7.6745   -0.3414    2.0294 C.2       1 <0>         0.5988
     25 O2          8.6046   -0.3530    2.8111 O.2       1 <0>        -0.5214
     26 C18         7.9324   -0.3761    0.5697 C.ar      1 <0>         0.1125
     27 C19         9.2477   -0.5378    0.1099 C.ar      1 <0>        -0.1286
     28 C20         9.4985   -0.5719   -1.2315 C.ar      1 <0>        -0.0503
     29 C21         8.4113   -0.4414   -2.1159 C.ar      1 <0>        -0.0819
     30 C22         8.5963   -0.4680   -3.5076 C.ar      1 <0>        -0.0991
     31 C23         7.5211   -0.3392   -4.3325 C.ar      1 <0>        -0.1001
     32 C24         6.2360   -0.1809   -3.8150 C.ar      1 <0>        -0.0935
     33 C25         6.0184   -0.1504   -2.4729 C.ar      1 <0>        -0.0918
     34 C26         7.1046   -0.2804   -1.5860 C.ar      1 <0>         0.1218
     35 N4          6.9192   -0.2595   -0.2664 N.ar      1 <0>        -0.4414
     36 H4          1.0085    1.9686    4.7297 H         1 <0>         0.0436
     37 H5         -0.6557    2.2878    5.2745 H         1 <0>         0.0620
     38 H6         -0.0411    0.6181    5.2226 H         1 <0>         0.0580
     39 H7         -1.1162    3.5161    3.1481 H         1 <0>         0.0688
     40 H8          0.5480    3.1969    2.6033 H         1 <0>         0.0548
     41 H9         -1.9957    2.3050    1.1711 H         1 <0>         0.0671
     42 H10        -0.9461    3.6554    0.6782 H         1 <0>         0.0656
     43 H11        -0.4273    1.6061   -0.6179 H         1 <0>         0.0656
     44 H12         0.9503    2.0815    0.4041 H         1 <0>         0.0584
     45 H13        -1.1329   -0.0387    1.0983 H         1 <0>         0.0754
     46 H14         0.5313   -0.3579    0.5535 H         1 <0>         0.0701
     47 H15         1.9298    1.9335    2.6250 H         1 <0>         0.3965
     48 H16         4.7309   -1.3701    1.7504 H         1 <0>         0.0943
     49 H17         5.3372   -0.0785    0.6683 H         1 <0>         0.1412
     50 H18         5.6628   -1.1398    4.2915 H         1 <0>         0.0855
     51 H19         6.7421    0.2729    4.5085 H         1 <0>         0.0884
     52 H20         2.7732    0.9361    4.6825 H         1 <0>         0.1007
     53 H21         3.4341   -0.7171    4.6585 H         1 <0>         0.1240
     54 H22         3.4330    0.2260    6.9602 H         1 <0>         0.1389
     55 H23         5.0884   -0.0901    6.3884 H         1 <0>         0.1336
     56 H24         3.7334    2.5093    6.2707 H         1 <0>         0.4267
     57 H25         5.9257    3.3566    5.7659 H         1 <0>         0.1395
     58 H26         6.4892    1.6691    5.7172 H         1 <0>         0.1344
     59 H27         5.9841    2.4857    3.4367 H         1 <0>         0.1178
     60 H28         4.3229    2.8825    3.9401 H         1 <0>         0.0953
     61 H29        10.0598   -0.6349    0.8152 H         1 <0>         0.1518
     62 H30        10.5046   -0.6953   -1.6043 H         1 <0>         0.1513
     63 H31         9.5865   -0.5897   -3.9214 H         1 <0>         0.1376
     64 H32         7.6654   -0.3596   -5.4026 H         1 <0>         0.1352
     65 H33         5.3998   -0.0804   -4.4911 H         1 <0>         0.1363
     66 H34         5.0166   -0.0274   -2.0888 H         1 <0>         0.1371
     67 H35         4.8326    2.0704    7.4147 H         1 <0>         0.4341
@<TRIPOS>BOND
     1    1    2 1
     2    1   36 1
     3    1   37 1
     4    1   38 1
     5    2    3 1
     6    2    8 1
     7    2    4 1
     8    4    5 1
     9    4   39 1
    10    4   40 1
    11    5    6 1
    12    5   41 1
    13    5   42 1
    14    6    7 1
    15    6   43 1
    16    6   44 1
    17    7    8 1
    18    7   45 1
    19    7   46 1
    20    8    9 1
    21    8   10 1
    22   10   11 am
    23   10   47 1
    24   11   12 2
    25   11   13 1
    26   13   14 1
    27   13   18 1
    28   13   15 1
    29   15   16 1
    30   15   48 1
    31   15   49 1
    32   16   17 1
    33   16   24 am
    34   17   18 1
    35   17   50 1
    36   17   51 1
    37   18   23 1
    38   18   19 1
    39   19   20 1
    40   19   52 1
    41   19   53 1
    42   20   21 1
    43   20   54 1
    44   20   55 1
    45   21   22 1
    46   21   56 1
    47   21   67 1
    48   22   23 1
    49   22   57 1
    50   22   58 1
    51   23   59 1
    52   23   60 1
    53   24   25 2
    54   24   26 1
    55   26   35 ar
    56   26   27 ar
    57   27   28 ar
    58   27   61 1
    59   28   29 ar
    60   28   62 1
    61   29   34 ar
    62   29   30 ar
    63   30   31 ar
    64   30   63 1
    65   31   32 ar
    66   31   64 1
    67   32   33 ar
    68   32   65 1
    69   33   34 ar
    70   33   66 1
    71   34   35 ar
@<TRIPOS>MOLECULE
ZINC53254478
   33    34     0     0     0
SMALL
USER_CHARGES

@<TRIPOS>ATOM
      1 C1          1.6340   -0.5652   -1.4442 C.ar      1 <0>        -0.0904
      2 C2          2.7112    0.2819   -1.2616 C.ar      1 <0>        -0.0041
      3 C3          2.6523    1.2794   -0.3068 C.ar      1 <0>        -0.6554
      4 C4          1.5152    1.4306    0.4667 C.ar      1 <0>        -0.0052
      5 C5          0.4375    0.5835    0.2844 C.ar      1 <0>        -0.0794
      6 C6          0.4968   -0.4147   -0.6714 C.ar      1 <0>        -0.0333
      7 Br1        -0.9767   -1.5731   -0.9217 Br        1 <0>        -0.0013
      8 Br2         1.4350    2.7951    1.7734 Br        1 <0>        -0.0140
      9 S1          4.0258    2.3583   -0.0742 S.o2      1 <0>         2.6884
     10 O1          5.0392    1.9248   -0.9711 O.2       1 <0>        -0.9299
     11 O2          3.5096    3.6821   -0.0903 O.2       1 <0>        -0.9138
     12 N1          4.6027    2.0938    1.4553 N.pl3     1 <0>        -1.1330
     13 C7          5.1552    0.7851    1.8137 C.3       1 <0>         0.0913
     14 C8          5.9648    0.9099    3.1059 C.3       1 <0>         0.0193
     15 H1          6.8385    1.5393    2.9366 H         1 <0>         0.1561
     16 C9          6.4097   -0.4884    3.5837 C.3       1 <0>        -0.1366
     17 C10         6.2665   -0.3928    5.1256 C.3       1 <0>        -0.1425
     18 C11         5.0118    0.5045    5.2682 C.3       1 <0>        -0.0095
     19 N2          5.1257    1.4921    4.1693 N.4       1 <0>        -0.5217
     20 H2          1.6788   -1.3417   -2.1934 H         1 <0>         0.1581
     21 H3          3.5991    0.1639   -1.8649 H         1 <0>         0.1664
     22 H4         -0.4502    0.7011    0.8882 H         1 <0>         0.1569
     23 H5          4.5748    2.8053    2.1140 H         1 <0>         0.4149
     24 H6          4.3413    0.0754    1.9620 H         1 <0>         0.0965
     25 H7          5.8033    0.4323    1.0115 H         1 <0>         0.1328
     26 H8          5.7524   -1.2599    3.1827 H         1 <0>         0.1060
     27 H9          7.4457   -0.6796    3.3041 H         1 <0>         0.1217
     28 H10         6.0951   -1.3761    5.5635 H         1 <0>         0.1216
     29 H11         7.1401    0.0840    5.5700 H         1 <0>         0.1025
     30 H12         4.1053   -0.0897    5.1536 H         1 <0>         0.1359
     31 H13         5.0152    1.0109    6.2334 H         1 <0>         0.1407
     32 H14         5.5530    2.3388    4.5138 H         1 <0>         0.4347
     33 H15         4.2091    1.7006    3.8027 H         1 <0>         0.4262
@<TRIPOS>BOND
     1    1    6 ar
     2    1    2 ar
     3    1   20 1
     4    2    3 ar
     5    2   21 1
     6    3    4 ar
     7    3    9 1
     8    4    5 ar
     9    4    8 1
    10    5    6 ar
    11    5   22 1
    12    6    7 1
    13    9   10 2
    14    9   11 2
    15    9   12 1
    16   12   13 1
    17   12   23 1
    18   13   14 1
    19   13   24 1
    20   13   25 1
    21   14   15 1
    22   14   19 1
    23   14   16 1
    24   16   17 1
    25   16   26 1
    26   16   27 1
    27   17   18 1
    28   17   28 1
    29   17   29 1
    30   18   19 1
    31   18   30 1
    32   18   31 1
    33   19   32 1
    34   19   33 1
@<TRIPOS>MOLECULE
ZINC65266028
   60    63     0     0     0
SMALL
USER_CHARGES

@<TRIPOS>ATOM
      1 C1         -2.3997    3.8241    1.4116 C.3       1 <0>        -0.1194
      2 C2         -1.5230    2.8397    0.6813 C.ar      1 <0>        -0.0306
      3 C3         -1.7766    2.5360   -0.6406 C.ar      1 <0>        -0.1194
      4 C4         -0.9728    1.6326   -1.3124 C.ar      1 <0>        -0.0847
      5 C5          0.0901    1.0278   -0.6647 C.ar      1 <0>        -0.1259
      6 C6          0.3549    1.3230    0.6564 C.ar      1 <0>        -0.0905
      7 C7         -0.4492    2.2377    1.3387 C.ar      1 <0>        -0.1401
      8 C8         -0.1678    2.5631    2.7532 C.2       1 <0>         0.5892
      9 O1         -0.0529    3.7228    3.0987 O.2       1 <0>        -0.5105
     10 N1         -0.0387    1.5739    3.6594 N.am      1 <0>        -0.6192
     11 C9         -0.0607    0.1286    3.3644 C.3       1 <0>         0.0900
     12 C10         0.7107   -0.5315    4.5372 C.3       1 <0>        -0.1133
     13 C11         0.2891    0.3585    5.7203 C.3       1 <0>         0.0805
     14 C12         0.1541    1.7562    5.1084 C.3       1 <0>         0.0778
     15 C13         1.2913    0.3266    6.8239 C.cat     1 <0>         0.6184
     16 N2          1.1111   -0.6306    7.7925 N.pl3     1 <0>        -0.7196
     17 C14         0.3273   -0.3261    8.9013 C.ar      1 <0>         0.1637
     18 C15         0.7633   -0.6650   10.1744 C.ar      1 <0>        -0.1336
     19 C16        -0.0186   -0.3773   11.2751 C.ar      1 <0>        -0.0861
     20 C17        -1.2388    0.2492   11.0970 C.ar      1 <0>        -0.1121
     21 C18        -1.6696    0.5901    9.8331 C.ar      1 <0>        -0.0911
     22 C19        -0.8905    0.3154    8.7132 C.ar      1 <0>        -0.1073
     23 C20        -1.4341    0.7623    7.3803 C.3       1 <0>         0.0795
     24 N3         -1.0053   -0.1014    6.2728 N.3       1 <0>        -0.6446
     25 N4          2.2809    1.1582    6.8667 N.pl3     1 <0>        -0.5300
     26 C21         3.4302    0.8850    7.7331 C.3       1 <0>         0.1092
     27 C22         4.0021   -0.4949    7.4018 C.3       1 <0>        -0.1710
     28 C23         4.5047    1.9503    7.5060 C.3       1 <0>        -0.1701
     29 C24         2.9842    0.9143    9.1964 C.3       1 <0>        -0.1850
     30 H1         -1.9464    4.8145    1.3707 H         1 <0>         0.0838
     31 H2         -3.3823    3.8546    0.9407 H         1 <0>         0.0740
     32 H3         -2.5047    3.5152    2.4516 H         1 <0>         0.0617
     33 H4         -2.6048    3.0042   -1.1517 H         1 <0>         0.1350
     34 H5         -1.1758    1.3980   -2.3469 H         1 <0>         0.1333
     35 H6          0.7135    0.3229   -1.1947 H         1 <0>         0.1329
     36 H7          1.1847    0.8504    1.1607 H         1 <0>         0.1262
     37 H8         -1.0874   -0.2362    3.3332 H         1 <0>         0.0907
     38 H9          0.4426   -0.0728    2.4188 H         1 <0>         0.1073
     39 H10         0.3870   -1.5614    4.6878 H         1 <0>         0.1281
     40 H11         1.7873   -0.4816    4.3745 H         1 <0>         0.0959
     41 H12         1.0591    2.3349    5.2935 H         1 <0>         0.0669
     42 H13        -0.7084    2.2661    5.5374 H         1 <0>         0.1006
     43 H14         1.7171   -1.1547   10.3044 H         1 <0>         0.1378
     44 H15         0.3194   -0.6395   12.2668 H         1 <0>         0.1393
     45 H16        -1.8578    0.4723   11.9534 H         1 <0>         0.1354
     46 H17        -2.6252    1.0780    9.7100 H         1 <0>         0.1331
     47 H18        -2.5232    0.7605    7.4262 H         1 <0>         0.1102
     48 H19        -1.0942    1.7793    7.1850 H         1 <0>         0.0598
     49 H20        -1.7111   -0.1438    5.5530 H         1 <0>         0.3786
     50 H21         2.2621    1.9627    6.3252 H         1 <0>         0.4394
     51 H22         4.3198   -0.5158    6.3593 H         1 <0>         0.0794
     52 H23         4.8572   -0.6981    8.0464 H         1 <0>         0.1083
     53 H24         3.2366   -1.2538    7.5636 H         1 <0>         0.0696
     54 H25         4.0973    2.9334    7.7421 H         1 <0>         0.0796
     55 H26         5.3598    1.7471    8.1506 H         1 <0>         0.1063
     56 H27         4.8224    1.9294    6.4636 H         1 <0>         0.0786
     57 H28         2.5605   -0.0530    9.4665 H         1 <0>         0.0975
     58 H29         3.8428    1.1257    9.8338 H         1 <0>         0.0971
     59 H30         2.2316    1.6911    9.3313 H         1 <0>         0.0721
     60 H31         1.5231   -1.5044    7.7049 H         1 <0>         0.4375
@<TRIPOS>BOND
     1    1    2 1
     2    1   30 1
     3    1   31 1
     4    1   32 1
     5    2    7 ar
     6    2    3 ar
     7    3    4 ar
     8    3   33 1
     9    4    5 ar
    10    4   34 1
    11    5    6 ar
    12    5   35 1
    13    6    7 ar
    14    6   36 1
    15    7    8 1
    16    8    9 2
    17    8   10 am
    18   10   14 1
    19   10   11 1
    20   11   12 1
    21   11   37 1
    22   11   38 1
    23   12   13 1
    24   12   39 1
    25   12   40 1
    26   13   24 1
    27   13   14 1
    28   13   15 1
    29   14   41 1
    30   14   42 1
    31   15   16 1
    32   15   25 2
    33   16   17 1
    34   16   60 1
    35   17   22 ar
    36   17   18 ar
    37   18   19 ar
    38   18   43 1
    39   19   20 ar
    40   19   44 1
    41   20   21 ar
    42   20   45 1
    43   21   22 ar
    44   21   46 1
    45   22   23 1
    46   23   24 1
    47   23   47 1
    48   23   48 1
    49   24   49 1
    50   25   26 1
    51   25   50 1
    52   26   27 1
    53   26   28 1
    54   26   29 1
    55   27   51 1
    56   27   52 1
    57   27   53 1
    58   28   54 1
    59   28   55 1
    60   28   56 1
    61   29   57 1
    62   29   58 1
    63   29   59 1
@<TRIPOS>MOLECULE
ZINC08862548
   42    44     0     0     0
SMALL
USER_CHARGES
3,4-dichloro-N-[2-pyrrolidin-1-yl-2-(3-thienyl)ethyl]-benzamide
@<TRIPOS>ATOM
      1 C1          8.4726   -0.8656   -0.9151 C.ar      1 <0>        -0.0772
      2 C2          9.7849   -1.2659   -0.7730 C.ar      1 <0>        -0.1021
      3 C3         10.5384   -1.5878   -1.8891 C.ar      1 <0>        -0.0028
      4 C4          9.9778   -1.5157   -3.1550 C.ar      1 <0>        -0.0377
      5 C5          8.6642   -1.1220   -3.3088 C.ar      1 <0>        -0.0338
      6 C6          7.9003   -0.7963   -2.1864 C.ar      1 <0>        -0.1324
      7 C7          6.4929   -0.3740   -2.3441 C.2       1 <0>         0.5689
      8 O1          5.9982   -0.3097   -3.4527 O.2       1 <0>        -0.5015
      9 N1          5.7578   -0.0602   -1.2590 N.am      1 <0>        -0.7530
     10 C8          4.3626    0.3584   -1.4154 C.3       1 <0>         0.1051
     11 C9          3.8114    0.8118   -0.0620 C.3       1 <0>         0.0949
     12 H1          3.9217    0.0059    0.6636 H         1 <0>         0.1472
     13 C10         2.3527    1.1622   -0.2056 C.2       1 <0>        -0.1595
     14 C11         1.3765    0.3179    0.2890 C.2       1 <0>        -0.1597
     15 C12         0.0737    0.6625    0.1429 C.2       1 <0>        -0.1471
     16 S1          0.1985    2.2227   -0.7158 S.3       1 <0>         0.1395
     17 C13         1.9785    2.3099   -0.8220 C.2       1 <0>        -0.1904
     18 C14         3.8784    2.6279    1.5582 C.3       1 <0>        -0.0042
     19 C15         5.0072    3.4627    2.2135 C.3       1 <0>        -0.1469
     20 C16         6.2492    2.5579    2.0441 C.3       1 <0>        -0.1435
     21 C17         5.9034    1.6146    0.8770 C.3       1 <0>        -0.0227
     22 Cl1        10.9297   -1.9217   -4.5488 Cl        1 <0>        -0.0212
     23 Cl2        12.1914   -2.0844   -1.7025 Cl        1 <0>        -0.0217
     24 H2          7.8877   -0.6101   -0.0439 H         1 <0>         0.1327
     25 H3         10.2270   -1.3239    0.2107 H         1 <0>         0.1547
     26 H4          8.2281   -1.0656   -4.2952 H         1 <0>         0.1600
     27 H5          6.1525   -0.1115   -0.3744 H         1 <0>         0.3980
     28 H6          3.7715   -0.4788   -1.7864 H         1 <0>         0.1185
     29 H7          4.3084    1.1842   -2.1248 H         1 <0>         0.1010
     30 H8          1.6477   -0.6025    0.7847 H         1 <0>         0.1454
     31 H9         -0.8104    0.1310    0.4627 H         1 <0>         0.1994
     32 H10         2.5967    3.0778   -1.2632 H         1 <0>         0.1895
     33 H11         3.0673    3.2742    1.2226 H         1 <0>         0.1370
     34 H12         3.5079    1.8717    2.2503 H         1 <0>         0.1352
     35 H13         4.7966    3.6349    3.2690 H         1 <0>         0.1181
     36 H14         5.1435    4.4074    1.6872 H         1 <0>         0.0990
     37 H15         6.4267    1.9847    2.9540 H         1 <0>         0.1064
     38 H16         7.1255    3.1578    1.7987 H         1 <0>         0.1078
     39 H17         5.8990    0.5812    1.2237 H         1 <0>         0.1286
     40 H18         6.6290    1.7331    0.0724 H         1 <0>         0.1358
     41 N2          4.5698    2.0059    0.4181 N.4       1 <0>        -0.3938
     42 H19         4.6521    2.6832   -0.3492 H         1 <0>         0.4282
@<TRIPOS>BOND
     1    1    6 ar
     2    1    2 ar
     3    1   24 1
     4    2    3 ar
     5    2   25 1
     6    3    4 ar
     7    3   23 1
     8    4    5 ar
     9    4   22 1
    10    5    6 ar
    11    5   26 1
    12    6    7 1
    13    7    8 2
    14    7    9 am
    15    9   10 1
    16    9   27 1
    17   10   11 1
    18   10   28 1
    19   10   29 1
    20   11   12 1
    21   11   13 1
    22   11   41 1
    23   13   17 2
    24   13   14 1
    25   14   15 2
    26   14   30 1
    27   15   16 1
    28   15   31 1
    29   16   17 1
    30   17   32 1
    31   18   19 1
    32   18   33 1
    33   18   34 1
    34   18   41 1
    35   19   20 1
    36   19   35 1
    37   19   36 1
    38   20   21 1
    39   20   37 1
    40   20   38 1
    41   21   39 1
    42   21   40 1
    43   21   41 1
    44   41   42 1
@<TRIPOS>MOLECULE
ZINC23279981
   51    53     0     0     0
SMALL
USER_CHARGES
2-bromo-6-methoxy-4-[[4-(1-piperidyl)-1-piperidyl]methyl]phenol
@<TRIPOS>ATOM
      1 C1         -2.3915    1.2539    0.0202 C.3       1 <0>         0.0180
      2 O1         -1.2028    2.0470    0.0189 O.3       1 <0>        -0.2928
      3 C2         -0.0167    1.3817    0.0096 C.ar      1 <0>         0.1073
      4 C3          0.0021   -0.0041    0.0020 C.ar      1 <0>        -0.1396
      5 C4          1.2083   -0.6792   -0.0136 C.ar      1 <0>        -0.1585
      6 C5          2.3981    0.0248   -0.0212 C.ar      1 <0>        -0.0608
      7 C6          2.3867    1.4079   -0.0127 C.ar      1 <0>        -0.1682
      8 C7          1.1802    2.0907    0.0020 C.ar      1 <0>         0.1982
      9 O2          1.1667    3.4508    0.0090 O.3       1 <0>        -0.4777
     10 Br1         4.0163    2.3672   -0.0219 Br        1 <0>        -0.0040
     11 C8          1.2263   -2.1861   -0.0218 C.3       1 <0>         0.0527
     12 N1          1.2184   -2.6683   -1.4094 N.4       1 <0>        -0.3970
     13 C9          2.1842   -1.9263   -2.2299 C.3       1 <0>        -0.0084
     14 C10         2.0462   -2.3526   -3.6932 C.3       1 <0>        -0.1400
     15 C11         2.3014   -3.8580   -3.8074 C.3       1 <0>         0.0711
     16 C12         1.3141   -4.6049   -2.9063 C.3       1 <0>        -0.1443
     17 C13         1.4733   -4.1133   -1.4658 C.3       1 <0>         0.0000
     18 N2          2.1130   -4.2836   -5.2008 N.3       1 <0>        -0.5330
     19 C14         2.2447   -5.7405   -5.3284 C.3       1 <0>         0.0500
     20 C15         1.9001   -6.1618   -6.7587 C.3       1 <0>        -0.1198
     21 C16         2.8463   -5.4575   -7.7351 C.3       1 <0>        -0.1269
     22 C17         2.7250   -3.9427   -7.5480 C.3       1 <0>        -0.1195
     23 C18         3.0457   -3.5857   -6.0948 C.3       1 <0>         0.0510
     24 H1         -3.2721    1.9131    0.0280 H         1 <0>         0.1143
     25 H2         -2.4044    0.6141    0.9149 H         1 <0>         0.0615
     26 H3         -2.4130    0.6240   -0.8813 H         1 <0>         0.0588
     27 H4         -0.9259   -0.5566    0.0079 H         1 <0>         0.1491
     28 H5          3.3384   -0.5063   -0.0334 H         1 <0>         0.1430
     29 H6          2.1138    4.0103    0.0030 H         1 <0>         0.4425
     30 H7          2.1339   -2.5447    0.4859 H         1 <0>         0.1356
     31 H8          0.3378   -2.5663    0.5036 H         1 <0>         0.1405
     32 H9          1.9872   -0.8476   -2.1426 H         1 <0>         0.1353
     33 H10         3.2046   -2.1421   -1.8803 H         1 <0>         0.1246
     34 H11         1.0305   -2.1232   -4.0477 H         1 <0>         0.0986
     35 H12         2.7799   -1.8071   -4.3048 H         1 <0>         0.1113
     36 H13         3.3390   -4.0994   -3.5332 H         1 <0>         0.0570
     37 H14         0.2869   -4.4129   -3.2497 H         1 <0>         0.1000
     38 H15         1.5203   -5.6844   -2.9521 H         1 <0>         0.1136
     39 H16         2.4970   -4.3188   -1.1198 H         1 <0>         0.1261
     40 H17         0.7552   -4.6379   -0.8184 H         1 <0>         0.1352
     41 H18         3.2788   -6.0367   -5.0985 H         1 <0>         0.0374
     42 H19         1.5571   -6.2338   -4.6256 H         1 <0>         0.0791
     43 H20         2.0133   -7.2515   -6.8573 H         1 <0>         0.0721
     44 H21         0.8611   -5.8792   -6.9840 H         1 <0>         0.0735
     45 H22         3.8809   -5.7729   -7.5349 H         1 <0>         0.0605
     46 H23         2.5745   -5.7253   -8.7668 H         1 <0>         0.0704
     47 H24         3.4332   -3.4327   -8.2175 H         1 <0>         0.0722
     48 H25         1.6997   -3.6245   -7.7878 H         1 <0>         0.0736
     49 H26         2.9452   -2.4994   -5.9538 H         1 <0>         0.0784
     50 H27         4.0761   -3.8920   -5.8613 H         1 <0>         0.0376
     51 H28         0.2164   -2.4882   -1.8259 H         1 <0>         0.4406
@<TRIPOS>BOND
     1    1    2 1
     2    1   24 1
     3    1   25 1
     4    1   26 1
     5    2    3 1
     6    3    8 ar
     7    3    4 ar
     8    4    5 ar
     9    4   27 1
    10    5    6 ar
    11    5   11 1
    12    6    7 ar
    13    6   28 1
    14    7    8 ar
    15    7   10 1
    16    8    9 1
    17    9   29 1
    18   11   12 1
    19   11   30 1
    20   11   31 1
    21   12   17 1
    22   12   13 1
    23   12   51 1
    24   13   14 1
    25   13   32 1
    26   13   33 1
    27   14   15 1
    28   14   34 1
    29   14   35 1
    30   15   16 1
    31   15   18 1
    32   15   36 1
    33   16   17 1
    34   16   37 1
    35   16   38 1
    36   17   39 1
    37   17   40 1
    38   18   23 1
    39   18   19 1
    40   19   20 1
    41   19   41 1
    42   19   42 1
    43   20   21 1
    44   20   43 1
    45   20   44 1
    46   21   22 1
    47   21   45 1
    48   21   46 1
    49   22   23 1
    50   22   47 1
    51   22   48 1
    52   23   49 1
    53   23   50 1
@<TRIPOS>MOLECULE
ZINC37519073
   36    37     0     0     0
SMALL
USER_CHARGES

@<TRIPOS>ATOM
      1 C1         -0.5501    1.4404    0.0787 C.3       1 <0>        -0.1053
      2 C2         -0.2284   -0.0311    0.0317 C.2       1 <0>         0.0526
      3 C3         -0.2203   -0.8282   -1.0625 C.2       1 <0>        -0.0958
      4 N1          0.1197   -2.0512   -0.6401 N.2       1 <0>        -0.2430
      5 N2          0.3105   -2.0185    0.6313 N.2       1 <0>        -0.0261
      6 N3          0.1187   -0.8272    1.0798 N.pl3     1 <0>        -0.2517
      7 C4          0.2430   -0.4207    2.4165 C.ar      1 <0>         0.1583
      8 C5          1.0304    0.6763    2.7394 C.ar      1 <0>        -0.0917
      9 C6          1.1507    1.0747    4.0561 C.ar      1 <0>        -0.0409
     10 C7          0.4877    0.3813    5.0534 C.ar      1 <0>        -0.0743
     11 C8         -0.2971   -0.7123    4.7342 C.ar      1 <0>        -0.0287
     12 C9         -0.4256   -1.1111    3.4180 C.ar      1 <0>        -0.1499
     13 C10        -1.2857   -2.2987    3.0703 C.3       1 <0>         0.5060
     14 F1         -1.8506   -2.8231    4.2378 F         1 <0>        -0.1636
     15 F2         -2.3041   -1.8978    2.1988 F         1 <0>        -0.1753
     16 F3         -0.5009   -3.2777    2.4515 F         1 <0>        -0.1503
     17 Br1         0.6552    0.9293    6.8555 Br        1 <0>         0.0066
     18 C11        -0.5336   -0.4185   -2.4784 C.3       1 <0>         0.1360
     19 H1         -0.5140    0.6687   -2.5548 H         1 <0>         0.1539
     20 C12        -1.9228   -0.9318   -2.8624 C.3       1 <0>        -0.1816
     21 N4          0.4685   -0.9913   -3.3871 N.4       1 <0>        -0.5066
     22 C13         0.2340   -0.4956   -4.7499 C.3       1 <0>        -0.0512
     23 H2          0.3653    2.0168   -0.0546 H         1 <0>         0.0994
     24 H3         -1.2524    1.6844   -0.7183 H         1 <0>         0.1006
     25 H4         -0.9958    1.6842    1.0430 H         1 <0>         0.0912
     26 H5          1.5486    1.2173    1.9615 H         1 <0>         0.1573
     27 H6          1.7631    1.9280    4.3078 H         1 <0>         0.1657
     28 H7         -0.8133   -1.2520    5.5144 H         1 <0>         0.1690
     29 H8         -2.6663   -0.5067   -2.1882 H         1 <0>         0.1066
     30 H9         -2.1494   -0.6354   -3.8865 H         1 <0>         0.0926
     31 H10        -1.9424   -2.0189   -2.7860 H         1 <0>         0.0890
     32 H11         1.3917   -0.7190   -3.0844 H         1 <0>         0.4313
     33 H12        -0.7634   -0.7898   -5.0769 H         1 <0>         0.1277
     34 H13         0.3137    0.5914   -4.7599 H         1 <0>         0.1257
     35 H14         0.9775   -0.9207   -5.4241 H         1 <0>         0.1305
     36 H15         0.3947   -1.9976   -3.3779 H         1 <0>         0.4362
@<TRIPOS>BOND
     1    1    2 1
     2    1   23 1
     3    1   24 1
     4    1   25 1
     5    2    6 1
     6    2    3 2
     7    3    4 1
     8    3   18 1
     9    4    5 2
    10    5    6 1
    11    6    7 1
    12    7   12 ar
    13    7    8 ar
    14    8    9 ar
    15    8   26 1
    16    9   10 ar
    17    9   27 1
    18   10   11 ar
    19   10   17 1
    20   11   12 ar
    21   11   28 1
    22   12   13 1
    23   13   14 1
    24   13   15 1
    25   13   16 1
    26   18   19 1
    27   18   20 1
    28   18   21 1
    29   20   29 1
    30   20   30 1
    31   20   31 1
    32   21   22 1
    33   21   32 1
    34   21   36 1
    35   22   33 1
    36   22   34 1
    37   22   35 1
@<TRIPOS>MOLECULE
ZINC43743798
   69    73     0     0     0
SMALL
USER_CHARGES

@<TRIPOS>ATOM
      1 C1         -0.0187    1.5258    0.0104 C.3       1 <0>        -0.1551
      2 C2          0.0021   -0.0041    0.0020 C.3       1 <0>        -0.0462
      3 C3          0.7194   -0.4998   -1.2523 C.3       1 <0>        -0.1093
      4 C4          2.1243    0.1035   -1.3151 C.3       1 <0>        -0.1213
      5 C5          2.9469   -0.3850   -0.1187 C.3       1 <0>        -0.0887
      6 C6          2.1865   -0.0743    1.1525 C.2       1 <0>        -0.1145
      7 C7          2.7621    0.5599    2.1437 C.2       1 <0>        -0.1933
      8 C8          0.7444   -0.5161    1.2454 C.3       1 <0>        -0.0457
      9 H1          0.6816   -1.6030    1.2981 H         1 <0>         0.0790
     10 C9          0.0929    0.1228    2.4709 C.3       1 <0>        -0.1162
     11 C10        -1.3682   -0.2399    2.5700 C.3       1 <0>        -0.0992
     12 H2         -1.8281    0.3137    3.3887 H         1 <0>         0.1105
     13 C11        -2.1627    0.0018    1.2715 C.3       1 <0>         0.0925
     14 H3         -2.4449    1.0472    1.1464 H         1 <0>         0.1482
     15 C12        -1.4270   -0.5355    0.0535 C.3       1 <0>        -0.1401
     16 O1         -3.3123   -0.8661    1.4773 O.3       1 <0>        -0.3272
     17 C13        -2.8584   -2.0287    1.9925 C.2       1 <0>         0.4819
     18 O2         -3.3717   -3.1125    1.8446 O.2       1 <0>        -0.4446
     19 C14        -1.5946   -1.7501    2.7754 C.3       1 <0>        -0.1904
     20 H4         -0.7578   -2.3227    2.3754 H         1 <0>         0.1411
     21 C15        -1.8097   -2.0677    4.2566 C.3       1 <0>         0.0099
     22 N1         -1.9031   -3.5226    4.4369 N.4       1 <0>        -0.3877
     23 C16        -0.6209   -4.1417    4.0805 C.3       1 <0>        -0.0075
     24 C17        -0.7373   -5.6636    4.1887 C.3       1 <0>        -0.1311
     25 C18        -1.1061   -6.0409    5.6264 C.3       1 <0>         0.1334
     26 C19        -2.4065   -5.3303    6.0127 C.3       1 <0>        -0.1777
     27 C20        -2.2282   -3.8207    5.8368 C.3       1 <0>        -0.0023
     28 C21        -1.3020   -7.5551    5.7237 C.3       1 <0>        -0.1061
     29 C22        -1.7837   -7.9115    7.1065 C.ar      1 <0>        -0.1029
     30 C23        -0.8704   -8.1928    8.1054 C.ar      1 <0>        -0.1202
     31 C24        -1.3123   -8.5197    9.3738 C.ar      1 <0>        -0.1115
     32 C25        -2.6673   -8.5647    9.6435 C.ar      1 <0>        -0.1132
     33 C26        -3.5805   -8.2825    8.6448 C.ar      1 <0>        -0.1143
     34 C27        -3.1386   -7.9515    7.3775 C.ar      1 <0>        -0.1196
     35 O3         -0.0591   -5.6352    6.5104 O.3       1 <0>        -0.5535
     36 H5          1.0039    1.9031    0.0027 H         1 <0>         0.0715
     37 H6         -0.5459    1.8868   -0.8726 H         1 <0>         0.0632
     38 H7         -0.5289    1.8773    0.9072 H         1 <0>         0.0586
     39 H8          0.7925   -1.5870   -1.2225 H         1 <0>         0.0633
     40 H9          0.1556   -0.1989   -2.1354 H         1 <0>         0.0702
     41 H10         2.6108   -0.2051   -2.2404 H         1 <0>         0.0696
     42 H11         2.0539    1.1909   -1.2875 H         1 <0>         0.0715
     43 H12         3.1034   -1.4608   -0.1975 H         1 <0>         0.0721
     44 H13         3.9093    0.1266   -0.1034 H         1 <0>         0.0732
     45 H14         3.7936    0.8690    2.0607 H         1 <0>         0.1015
     46 H15         2.2050    0.7737    3.0440 H         1 <0>         0.1014
     47 H16         0.6073   -0.2212    3.3682 H         1 <0>         0.0802
     48 H17         0.1873    1.2064    2.4006 H         1 <0>         0.0969
     49 H18        -1.9551   -0.2336   -0.8510 H         1 <0>         0.0923
     50 H19        -1.4036   -1.6238    0.1084 H         1 <0>         0.0659
     51 H20        -0.9706   -1.6829    4.8362 H         1 <0>         0.1486
     52 H21        -2.7326   -1.5992    4.5984 H         1 <0>         0.1382
     53 H22        -0.3582   -3.8696    3.0582 H         1 <0>         0.1262
     54 H23         0.1543   -3.7878    4.7602 H         1 <0>         0.1408
     55 H24        -1.5121   -6.0186    3.5092 H         1 <0>         0.1034
     56 H25         0.2162   -6.1212    3.9255 H         1 <0>         0.1226
     57 H26        -3.2159   -5.6784    5.3710 H         1 <0>         0.0989
     58 H27        -2.6460   -5.5498    7.0531 H         1 <0>         0.1209
     59 H28        -1.4188   -3.4737    6.4791 H         1 <0>         0.1362
     60 H29        -3.1522   -3.3118    6.1112 H         1 <0>         0.1306
     61 H30        -2.0407   -7.8739    4.9883 H         1 <0>         0.0885
     62 H31        -0.3546   -8.0574    5.5283 H         1 <0>         0.0933
     63 H32         0.1882   -8.1576    7.8947 H         1 <0>         0.1265
     64 H33        -0.5988   -8.7402   10.1540 H         1 <0>         0.1275
     65 H34        -3.0125   -8.8208   10.6343 H         1 <0>         0.1268
     66 H35        -4.6392   -8.3181    8.8554 H         1 <0>         0.1260
     67 H36        -3.8520   -7.7273    6.5983 H         1 <0>         0.1208
     68 H37        -0.2263   -5.8434    7.4398 H         1 <0>         0.3900
     69 H38        -2.6287   -3.8886    3.8389 H         1 <0>         0.4259
@<TRIPOS>BOND
     1    1    2 1
     2    1   36 1
     3    1   37 1
     4    1   38 1
     5    2    8 1
     6    2   15 1
     7    2    3 1
     8    3    4 1
     9    3   39 1
    10    3   40 1
    11    4    5 1
    12    4   41 1
    13    4   42 1
    14    5    6 1
    15    5   43 1
    16    5   44 1
    17    6    7 2
    18    6    8 1
    19    7   45 1
    20    7   46 1
    21    8    9 1
    22    8   10 1
    23   10   11 1
    24   10   47 1
    25   10   48 1
    26   11   12 1
    27   11   19 1
    28   11   13 1
    29   13   14 1
    30   13   15 1
    31   13   16 1
    32   15   49 1
    33   15   50 1
    34   16   17 1
    35   17   18 2
    36   17   19 1
    37   19   20 1
    38   19   21 1
    39   21   22 1
    40   21   51 1
    41   21   52 1
    42   22   27 1
    43   22   23 1
    44   22   69 1
    45   23   24 1
    46   23   53 1
    47   23   54 1
    48   24   25 1
    49   24   55 1
    50   24   56 1
    51   25   26 1
    52   25   28 1
    53   25   35 1
    54   26   27 1
    55   26   57 1
    56   26   58 1
    57   27   59 1
    58   27   60 1
    59   28   29 1
    60   28   61 1
    61   28   62 1
    62   29   34 ar
    63   29   30 ar
    64   30   31 ar
    65   30   63 1
    66   31   32 ar
    67   31   64 1
    68   32   33 ar
    69   32   65 1
    70   33   34 ar
    71   33   66 1
    72   34   67 1
    73   35   68 1
@<TRIPOS>MOLECULE
ZINC63385800
   42    45     0     0     0
SMALL
USER_CHARGES

@<TRIPOS>ATOM
      1 C1         -0.0163    1.3482    0.0095 C.ar      1 <0>        -0.1491
      2 C2          1.1658    2.1014    0.0022 C.ar      1 <0>         0.0552
      3 C3          2.3912    1.5352   -0.0125 C.ar      1 <0>        -0.2097
      4 C4          2.5288    0.1198   -0.0218 C.ar      1 <0>         0.3281
      5 N1          3.5868   -0.6543   -0.0369 N.pl3     1 <0>        -0.5843
      6 C5          3.1432   -2.0528   -0.0408 C.3       1 <0>         0.0605
      7 C6          1.6315   -2.0084   -0.0255 C.2       1 <0>         0.0685
      8 C7          1.2951   -0.6984   -0.0144 C.ar      1 <0>        -0.1657
      9 C8          0.0021   -0.0041    0.0020 C.ar      1 <0>        -0.0138
     10 C9          0.6905   -3.1856   -0.0239 C.3       1 <0>        -0.1045
     11 C10         0.4565   -3.6534   -1.4617 C.3       1 <0>         0.1257
     12 N2         -0.4583   -4.7977   -1.4602 N.am      1 <0>        -0.7317
     13 C11        -0.8107   -5.3803   -2.6233 C.2       1 <0>         0.5023
     14 O1         -0.3706   -4.9572   -3.6712 O.2       1 <0>        -0.5045
     15 C12        -1.7517   -6.5574   -2.6217 C.3       1 <0>         0.0631
     16 H1         -1.3693   -7.3547   -1.9843 H         1 <0>         0.1495
     17 C13        -3.1675   -6.1266   -2.1707 C.3       1 <0>        -0.0943
     18 C14        -3.8408   -5.8266   -3.4959 C.ar      1 <0>        -0.1754
     19 C15        -4.9963   -5.1471   -3.8129 C.ar      1 <0>        -0.0388
     20 C16        -5.3798   -5.0149   -5.1364 C.ar      1 <0>        -0.1179
     21 C17        -4.5986   -5.5673   -6.1359 C.ar      1 <0>        -0.0508
     22 C18        -3.4430   -6.2506   -5.8197 C.ar      1 <0>        -0.1210
     23 C19        -3.0525   -6.3913   -4.4901 C.ar      1 <0>         0.1216
     24 O2         -1.9713   -7.0358   -3.9596 O.3       1 <0>        -0.2661
     25 Br1        -6.9655   -4.0834   -5.5766 Br        1 <0>        -0.0359
     26 H2         -0.9665    1.8612    0.0259 H         1 <0>         0.1585
     27 H3          1.0933    3.1789    0.0083 H         1 <0>         0.1617
     28 H4          3.2717    2.1606   -0.0175 H         1 <0>         0.1612
     29 H5          3.4952   -2.5561   -0.9413 H         1 <0>         0.1748
     30 H6          3.5129   -2.5667    0.8465 H         1 <0>         0.1753
     31 H7         -0.9210   -0.5647    0.0081 H         1 <0>         0.1605
     32 H8          1.1268   -3.9987    0.5563 H         1 <0>         0.1203
     33 H9         -0.2596   -2.8905    0.4214 H         1 <0>         0.1168
     34 H10         0.0203   -2.8403   -2.0419 H         1 <0>         0.0801
     35 H11         1.4067   -3.9484   -1.9070 H         1 <0>         0.0801
     36 H12        -0.8103   -5.1361   -0.6220 H         1 <0>         0.4079
     37 H13        -3.6750   -6.9395   -1.6512 H         1 <0>         0.1127
     38 H14        -3.1227   -5.2347   -1.5458 H         1 <0>         0.0973
     39 H15        -5.6025   -4.7173   -3.0293 H         1 <0>         0.1372
     40 H16        -4.8951   -5.4626   -7.1692 H         1 <0>         0.1461
     41 H17        -2.8390   -6.6788   -6.6059 H         1 <0>         0.1421
     42 H18         4.5087   -0.3528   -0.0446 H         1 <0>         0.4565
@<TRIPOS>BOND
     1    1    9 ar
     2    1    2 ar
     3    1   26 1
     4    2    3 ar
     5    2   27 1
     6    3    4 ar
     7    3   28 1
     8    4    8 ar
     9    4    5 2
    10    5    6 1
    11    5   42 1
    12    6    7 1
    13    6   29 1
    14    6   30 1
    15    7    8 2
    16    7   10 1
    17    8    9 ar
    18    9   31 1
    19   10   11 1
    20   10   32 1
    21   10   33 1
    22   11   12 1
    23   11   34 1
    24   11   35 1
    25   12   13 am
    26   12   36 1
    27   13   14 2
    28   13   15 1
    29   15   16 1
    30   15   24 1
    31   15   17 1
    32   17   18 1
    33   17   37 1
    34   17   38 1
    35   18   23 ar
    36   18   19 ar
    37   19   20 ar
    38   19   39 1
    39   20   21 ar
    40   20   25 1
    41   21   22 ar
    42   21   40 1
    43   22   23 ar
    44   22   41 1
    45   23   24 1
@<TRIPOS>MOLECULE
ZINC09516167
   56    58     0     0     0
SMALL
USER_CHARGES
2-bromo-5-(cyclopropylsulfamoyl)-N-[(1-dimethylaminocyclohexyl)methyl]benzamide
@<TRIPOS>ATOM
      1 C1         -0.1994   -0.4271    2.3698 C.3       1 <0>        -0.0517
      2 C2          1.3292    1.4436    2.5330 C.3       1 <0>        -0.0538
      3 C3         -0.6020    1.5816    1.0790 C.3       1 <0>         0.0494
      4 C4          0.2393    1.0777   -0.0953 C.3       1 <0>        -0.1272
      5 C5         -0.3169    1.6463   -1.4023 C.3       1 <0>        -0.1224
      6 C6         -1.7665    1.1904   -1.5807 C.3       1 <0>        -0.1302
      7 C7         -2.6078    1.6943   -0.4064 C.3       1 <0>        -0.1199
      8 C8         -2.0515    1.1257    0.9006 C.3       1 <0>        -0.1369
      9 C9         -0.5500    3.1100    1.1249 C.3       1 <0>         0.1001
     10 N1         -1.2500    3.5868    2.3203 N.am      1 <0>        -0.7491
     11 C10        -1.3109    4.9071    2.5839 C.2       1 <0>         0.5604
     12 O1         -0.7850    5.7024    1.8297 O.2       1 <0>        -0.4744
     13 C11        -2.0170    5.3881    3.7898 C.ar      1 <0>        -0.1421
     14 C12        -2.6270    4.4779    4.6551 C.ar      1 <0>         0.0120
     15 C13        -3.2806    4.9330    5.7810 C.ar      1 <0>        -0.6743
     16 C14        -3.3416    6.2895    6.0493 C.ar      1 <0>         0.0232
     17 C15        -2.7441    7.1976    5.1947 C.ar      1 <0>        -0.1101
     18 C16        -2.0820    6.7556    4.0660 C.ar      1 <0>         0.0086
     19 Br1        -1.2654    7.9986    2.8981 Br        1 <0>         0.0220
     20 S1         -4.0457    3.7851    6.8771 S.o2      1 <0>         2.6990
     21 O2         -3.3798    2.5432    6.6942 O.2       1 <0>        -0.9522
     22 O3         -4.1288    4.4257    8.1428 O.2       1 <0>        -0.9389
     23 N2         -5.6015    3.5697    6.3526 N.pl3     1 <0>        -1.0838
     24 C17        -5.8562    2.9494    5.0501 C.3       1 <0>         0.0733
     25 C18        -7.0756    3.4338    4.2632 C.3       1 <0>        -0.1856
     26 C19        -7.0901    2.0536    4.9233 C.3       1 <0>        -0.1790
     27 H1          0.2739   -0.8562    1.4866 H         1 <0>         0.1282
     28 H2          0.2857   -0.8136    3.2660 H         1 <0>         0.1279
     29 H3         -1.2554   -0.6967    2.3832 H         1 <0>         0.1247
     30 H4          1.3880    2.5313    2.5721 H         1 <0>         0.1220
     31 H5          1.6998    1.0259    3.4691 H         1 <0>         0.1282
     32 H6          1.9364    1.0764    1.7057 H         1 <0>         0.1300
     33 H7          0.2023   -0.0112   -0.1280 H         1 <0>         0.0951
     34 H8          1.2720    1.4025    0.0318 H         1 <0>         0.0920
     35 H9         -0.2799    2.7352   -1.3696 H         1 <0>         0.0774
     36 H10         0.2825    1.2873   -2.2389 H         1 <0>         0.0892
     37 H11        -2.1628    1.5955   -2.5118 H         1 <0>         0.0817
     38 H12        -1.8035    0.1015   -1.6134 H         1 <0>         0.0722
     39 H13        -2.5708    2.7832   -0.3737 H         1 <0>         0.0764
     40 H14        -3.6405    1.3695   -0.5335 H         1 <0>         0.0875
     41 H15        -2.6509    1.4847    1.7372 H         1 <0>         0.0829
     42 H16        -2.0886    0.0368    0.8679 H         1 <0>         0.0967
     43 H17         0.4891    3.4374    1.1575 H         1 <0>         0.1003
     44 H18        -1.0314    3.5167    0.2355 H         1 <0>         0.1217
     45 H19        -1.6696    2.9522    2.9221 H         1 <0>         0.3892
     46 H20        -2.5839    3.4194    4.4451 H         1 <0>         0.1394
     47 H21        -3.8587    6.6403    6.9302 H         1 <0>         0.1616
     48 H22        -2.7955    8.2547    5.4100 H         1 <0>         0.1588
     49 H23        -6.3443    3.8542    6.9078 H         1 <0>         0.4266
     50 H24        -4.9695    2.6680    4.4820 H         1 <0>         0.1287
     51 H25        -7.6884    4.2141    4.7146 H         1 <0>         0.1044
     52 H26        -6.9913    3.4714    3.1771 H         1 <0>         0.1048
     53 H27        -7.0153    1.1832    4.2715 H         1 <0>         0.1063
     54 H28        -7.7122    1.9256    5.8091 H         1 <0>         0.1051
     55 N3         -0.0834    1.0464    2.3555 N.4       1 <0>        -0.3961
     56 H29        -0.6380    1.4321    3.1287 H         1 <0>         0.4206
@<TRIPOS>BOND
     1    1   27 1
     2    1   28 1
     3    1   29 1
     4    1   55 1
     5    2   30 1
     6    2   31 1
     7    2   32 1
     8    2   55 1
     9    3    8 1
    10    3    4 1
    11    3    9 1
    12    3   55 1
    13    4    5 1
    14    4   33 1
    15    4   34 1
    16    5    6 1
    17    5   35 1
    18    5   36 1
    19    6    7 1
    20    6   37 1
    21    6   38 1
    22    7    8 1
    23    7   39 1
    24    7   40 1
    25    8   41 1
    26    8   42 1
    27    9   10 1
    28    9   43 1
    29    9   44 1
    30   10   11 am
    31   10   45 1
    32   11   12 2
    33   11   13 1
    34   13   18 ar
    35   13   14 ar
    36   14   15 ar
    37   14   46 1
    38   15   16 ar
    39   15   20 1
    40   16   17 ar
    41   16   47 1
    42   17   18 ar
    43   17   48 1
    44   18   19 1
    45   20   21 2
    46   20   22 2
    47   20   23 1
    48   23   24 1
    49   23   49 1
    50   24   26 1
    51   24   25 1
    52   24   50 1
    53   25   26 1
    54   25   51 1
    55   25   52 1
    56   26   53 1
    57   26   54 1
    58   55   56 1
@<TRIPOS>MOLECULE
ZINC39595761
   63    66     0     0     0
SMALL
USER_CHARGES

@<TRIPOS>ATOM
      1 C1          3.5479    2.0287    1.1985 C.3       1 <0>        -0.1817
      2 C2          3.6076    0.5158    0.9785 C.3       1 <0>         0.0705
      3 H1          4.5068    0.1157    1.4470 H         1 <0>         0.0799
      4 C3          2.3733   -0.1393    1.6016 C.3       1 <0>         0.1213
      5 N1          2.4881   -1.5960    1.4965 N.am      1 <0>        -0.7251
      6 C4          1.5098   -2.3858    1.9820 C.2       1 <0>         0.5214
      7 O1          0.5345   -1.8905    2.5059 O.2       1 <0>        -0.5189
      8 C5          1.6278   -3.8842    1.8738 C.3       1 <0>        -0.1132
      9 H2          2.2428   -4.1548    1.0156 H         1 <0>         0.1123
     10 C6          0.2276   -4.5271    1.7564 C.3       1 <0>         0.1164
     11 N2          0.3244   -5.7810    2.5403 N.am      1 <0>        -0.6192
     12 C7          1.1412   -5.4149    3.7221 C.3       1 <0>         0.0941
     13 C8          2.2238   -4.4690    3.1653 C.3       1 <0>        -0.0724
     14 C9          3.4970   -5.2497    2.8535 C.3       1 <0>        -0.1357
     15 C10         4.1016   -5.7733    4.1593 C.3       1 <0>        -0.0115
     16 N3          4.4011   -4.6447    5.0490 N.4       1 <0>        -0.5051
     17 C11         3.1593   -3.9546    5.4182 C.3       1 <0>        -0.0080
     18 C12         2.5146   -3.3544    4.1656 C.3       1 <0>        -0.1481
     19 C13        -0.2096   -6.9828    2.2454 C.2       1 <0>         0.5830
     20 O2         -0.7671   -7.1550    1.1790 O.2       1 <0>        -0.5087
     21 C14        -0.1174   -8.0912    3.2185 C.ar      1 <0>        -0.1319
     22 C15         0.0279   -7.8182    4.5800 C.ar      1 <0>        -0.0923
     23 C16         0.1129   -8.8567    5.4833 C.ar      1 <0>        -0.1196
     24 C17         0.0550  -10.1684    5.0422 C.ar      1 <0>        -0.0095
     25 C18        -0.0890  -10.4454    3.6927 C.ar      1 <0>        -0.1106
     26 C19        -0.1810   -9.4154    2.7806 C.ar      1 <0>        -0.0439
     27 Cl1         0.1639  -11.4704    6.1852 Cl        1 <0>        -0.0482
     28 O3          3.6373    0.2391   -0.4231 O.3       1 <0>        -0.3040
     29 C20         4.8514    0.2746   -1.0337 C.ar      1 <0>         0.1160
     30 C21         6.0013    0.4650   -0.2816 C.ar      1 <0>        -0.1860
     31 C22         7.2345    0.5009   -0.9033 C.ar      1 <0>        -0.1133
     32 C23         7.3229    0.3475   -2.2765 C.ar      1 <0>         0.0669
     33 C24         6.1759    0.1579   -3.0284 C.ar      1 <0>        -0.1097
     34 C25         4.9420    0.1150   -2.4085 C.ar      1 <0>        -0.1191
     35 F1          8.5294    0.3833   -2.8833 F         1 <0>        -0.1361
     36 H3          3.5253    2.2398    2.2677 H         1 <0>         0.0783
     37 H4          4.4273    2.4954    0.7546 H         1 <0>         0.0725
     38 H5          2.6487    2.4288    0.7301 H         1 <0>         0.0769
     39 H6          2.3023    0.1448    2.6516 H         1 <0>         0.0939
     40 H7          1.4797    0.1938    1.0739 H         1 <0>         0.0883
     41 H8          3.2681   -1.9921    1.0775 H         1 <0>         0.4025
     42 H9         -0.5295   -3.8694    2.1835 H         1 <0>         0.1005
     43 H10        -0.0032   -4.7473    0.7142 H         1 <0>         0.0992
     44 H11         0.5293   -4.9000    4.4628 H         1 <0>         0.0909
     45 H12         1.6002   -6.3026    4.1572 H         1 <0>         0.0932
     46 H13         3.2584   -6.0892    2.2006 H         1 <0>         0.1195
     47 H14         4.2133   -4.5946    2.3578 H         1 <0>         0.0979
     48 H15         3.3910   -6.4410    4.6464 H         1 <0>         0.1326
     49 H16         5.0205   -6.3176    3.9414 H         1 <0>         0.1411
     50 H17         4.8550   -4.9867    5.8827 H         1 <0>         0.4348
     51 H18         2.4712   -4.6654    5.8757 H         1 <0>         0.1331
     52 H19         3.3837   -3.1585    6.1281 H         1 <0>         0.1404
     53 H20         3.1956   -2.6312    3.7168 H         1 <0>         0.0966
     54 H21         1.5834   -2.8578    4.4380 H         1 <0>         0.1286
     55 H22         0.0739   -6.7959    4.9249 H         1 <0>         0.1387
     56 H23         0.2253   -8.6468    6.5367 H         1 <0>         0.1417
     57 H24        -0.1333  -11.4702    3.3547 H         1 <0>         0.1472
     58 H25        -0.2974   -9.6325    1.7290 H         1 <0>         0.1478
     59 H26         5.9325    0.5853    0.7895 H         1 <0>         0.1368
     60 H27         8.1299    0.6491   -0.3180 H         1 <0>         0.1393
     61 H28         6.2463    0.0388   -4.0995 H         1 <0>         0.1462
     62 H29         4.0479   -0.0378   -2.9947 H         1 <0>         0.1430
     63 H30         5.0152   -3.9989    4.5758 H         1 <0>         0.4282
@<TRIPOS>BOND
     1    1    2 1
     2    1   36 1
     3    1   37 1
     4    1   38 1
     5    2    3 1
     6    2    4 1
     7    2   28 1
     8    4    5 1
     9    4   39 1
    10    4   40 1
    11    5    6 am
    12    5   41 1
    13    6    7 2
    14    6    8 1
    15    8    9 1
    16    8   13 1
    17    8   10 1
    18   10   11 1
    19   10   42 1
    20   10   43 1
    21   11   12 1
    22   11   19 am
    23   12   13 1
    24   12   44 1
    25   12   45 1
    26   13   18 1
    27   13   14 1
    28   14   15 1
    29   14   46 1
    30   14   47 1
    31   15   16 1
    32   15   48 1
    33   15   49 1
    34   16   17 1
    35   16   50 1
    36   16   63 1
    37   17   18 1
    38   17   51 1
    39   17   52 1
    40   18   53 1
    41   18   54 1
    42   19   20 2
    43   19   21 1
    44   21   26 ar
    45   21   22 ar
    46   22   23 ar
    47   22   55 1
    48   23   24 ar
    49   23   56 1
    50   24   25 ar
    51   24   27 1
    52   25   26 ar
    53   25   57 1
    54   26   58 1
    55   28   29 1
    56   29   34 ar
    57   29   30 ar
    58   30   31 ar
    59   30   59 1
    60   31   32 ar
    61   31   60 1
    62   32   33 ar
    63   32   35 1
    64   33   34 ar
    65   33   61 1
    66   34   62 1
@<TRIPOS>MOLECULE
ZINC39667141
   68    71     0     0     0
SMALL
USER_CHARGES

@<TRIPOS>ATOM
      1 C1         -2.4977    1.6076   -2.1324 C.3       1 <0>        -0.1207
      2 C2         -2.5450    0.1018   -2.1702 C.ar      1 <0>        -0.0741
      3 C3         -3.7625   -0.5526   -2.1400 C.ar      1 <0>        -0.1254
      4 C4         -3.8059   -1.9336   -2.1746 C.ar      1 <0>        -0.1059
      5 C5         -2.6318   -2.6607   -2.2399 C.ar      1 <0>        -0.1008
      6 C6         -1.4147   -2.0065   -2.2710 C.ar      1 <0>        -0.0716
      7 C7         -1.3715   -0.6250   -2.2407 C.ar      1 <0>        -0.1185
      8 C8         -0.1349   -2.7991   -2.3417 C.3       1 <0>        -0.1217
      9 C9         -2.6791   -4.1665   -2.2766 C.3       1 <0>        -0.0859
     10 C10        -2.5125   -4.7167   -0.8588 C.3       1 <0>         0.1205
     11 N1         -2.5585   -6.1806   -0.8945 N.am      1 <0>        -0.7310
     12 C11        -2.4319   -6.8868    0.2464 C.2       1 <0>         0.5111
     13 O1         -2.2799   -6.3105    1.3027 O.2       1 <0>        -0.5086
     14 C12        -2.4791   -8.3926    0.2097 C.3       1 <0>        -0.1144
     15 H1         -2.1402   -8.7587   -0.7595 H         1 <0>         0.1182
     16 C13        -1.6116   -8.9859    1.3423 C.3       1 <0>         0.1227
     17 N2         -2.5620   -9.2321    2.4522 N.am      1 <0>        -0.6081
     18 C14        -3.7855   -9.7374    1.7846 C.3       1 <0>         0.0889
     19 C15        -3.9045   -8.8909    0.5016 C.3       1 <0>        -0.0726
     20 C16        -4.8399   -7.7086    0.7358 C.3       1 <0>        -0.1487
     21 C17        -6.2619   -8.2272    0.9678 C.3       1 <0>        -0.0092
     22 N3         -6.6998   -8.9995   -0.2012 N.4       1 <0>        -0.5051
     23 C18        -5.8508  -10.1857   -0.3647 C.3       1 <0>        -0.0100
     24 C19        -4.4113   -9.7499   -0.6527 C.3       1 <0>        -0.1346
     25 C20        -2.3599   -9.0401    3.7708 C.2       1 <0>         0.6023
     26 O2         -1.3369   -8.5087    4.1581 O.2       1 <0>        -0.4864
     27 C21        -3.3786   -9.4740    4.7434 C.2       1 <0>        -0.1568
     28 C22        -4.5935  -10.2553    4.4690 C.2       1 <0>        -0.2185
     29 C23        -5.2083  -10.4086    5.6517 C.2       1 <0>         0.0450
     30 O3         -4.4862   -9.7994    6.6050 O.3       1 <0>        -0.1394
     31 C24        -3.3884   -9.2398    6.0872 C.2       1 <0>        -0.0291
     32 C25        -2.3409   -8.4772    6.8568 C.3       1 <0>         0.5503
     33 F1         -2.6849   -7.1217    6.8950 F         1 <0>        -0.1600
     34 F2         -2.2654   -8.9761    8.1616 F         1 <0>        -0.1647
     35 F3         -1.0999   -8.6258    6.2282 F         1 <0>        -0.1246
     36 C26        -6.5031  -11.1469    5.8742 C.3       1 <0>        -0.0858
     37 H2         -2.5311    1.9977   -3.1496 H         1 <0>         0.0740
     38 H3         -3.3525    1.9840   -1.5706 H         1 <0>         0.0686
     39 H4         -1.5751    1.9301   -1.6497 H         1 <0>         0.0691
     40 H5         -4.6797    0.0154   -2.0889 H         1 <0>         0.1230
     41 H6         -4.7570   -2.4447   -2.1503 H         1 <0>         0.1184
     42 H7         -0.4205   -0.1137   -2.2688 H         1 <0>         0.1247
     43 H8          0.1333   -2.9638   -3.3853 H         1 <0>         0.0733
     44 H9          0.6625   -2.2467   -1.8445 H         1 <0>         0.0701
     45 H10        -0.2747   -3.7600   -1.8465 H         1 <0>         0.0665
     46 H11        -3.6379   -4.4901   -2.6816 H         1 <0>         0.0747
     47 H12        -1.8731   -4.5400   -2.9084 H         1 <0>         0.0818
     48 H13        -1.5537   -4.3931   -0.4538 H         1 <0>         0.0758
     49 H14        -3.3184   -4.3432   -0.2271 H         1 <0>         0.0710
     50 H15        -2.6800   -6.6415   -1.7393 H         1 <0>         0.3990
     51 H16        -1.1533   -9.9209    1.0199 H         1 <0>         0.0911
     52 H17        -0.8465   -8.2725    1.6484 H         1 <0>         0.1036
     53 H18        -3.6742  -10.7924    1.5341 H         1 <0>         0.0898
     54 H19        -4.6567   -9.5868    2.4222 H         1 <0>         0.0941
     55 H20        -4.5088   -7.1504    1.6115 H         1 <0>         0.1247
     56 H21        -4.8283   -7.0568   -0.1378 H         1 <0>         0.0976
     57 H22        -6.2759   -8.8660    1.8509 H         1 <0>         0.1309
     58 H23        -6.9358   -7.3840    1.1191 H         1 <0>         0.1397
     59 H24        -7.6579   -9.2885   -0.0722 H         1 <0>         0.4341
     60 H25        -5.8747  -10.7782    0.5499 H         1 <0>         0.1314
     61 H26        -6.2216  -10.7859   -1.1956 H         1 <0>         0.1414
     62 H27        -4.3841   -9.1714   -1.5761 H         1 <0>         0.0991
     63 H28        -3.7781  -10.6311   -0.7559 H         1 <0>         0.1233
     64 H29        -4.9237  -10.6291    3.5111 H         1 <0>         0.1698
     65 H30        -6.2918  -12.1948    6.0872 H         1 <0>         0.0976
     66 H31        -7.0334  -10.7045    6.7175 H         1 <0>         0.0905
     67 H32        -7.1206  -11.0755    4.9788 H         1 <0>         0.0954
     68 H33        -6.6334   -8.4237   -1.0271 H         1 <0>         0.4291
@<TRIPOS>BOND
     1    1    2 1
     2    1   37 1
     3    1   38 1
     4    1   39 1
     5    2    7 ar
     6    2    3 ar
     7    3    4 ar
     8    3   40 1
     9    4    5 ar
    10    4   41 1
    11    5    6 ar
    12    5    9 1
    13    6    7 ar
    14    6    8 1
    15    7   42 1
    16    8   43 1
    17    8   44 1
    18    8   45 1
    19    9   10 1
    20    9   46 1
    21    9   47 1
    22   10   11 1
    23   10   48 1
    24   10   49 1
    25   11   12 am
    26   11   50 1
    27   12   13 2
    28   12   14 1
    29   14   15 1
    30   14   19 1
    31   14   16 1
    32   16   17 1
    33   16   51 1
    34   16   52 1
    35   17   18 1
    36   17   25 am
    37   18   19 1
    38   18   53 1
    39   18   54 1
    40   19   24 1
    41   19   20 1
    42   20   21 1
    43   20   55 1
    44   20   56 1
    45   21   22 1
    46   21   57 1
    47   21   58 1
    48   22   23 1
    49   22   59 1
    50   22   68 1
    51   23   24 1
    52   23   60 1
    53   23   61 1
    54   24   62 1
    55   24   63 1
    56   25   26 2
    57   25   27 1
    58   27   31 2
    59   27   28 1
    60   28   29 2
    61   28   64 1
    62   29   30 1
    63   29   36 1
    64   30   31 1
    65   31   32 1
    66   32   33 1
    67   32   34 1
    68   32   35 1
    69   36   65 1
    70   36   66 1
    71   36   67 1
@<TRIPOS>MOLECULE
ZINC43548612
   75    78     0     0     0
SMALL
USER_CHARGES

@<TRIPOS>ATOM
      1 C1         -2.8421    2.5191   -1.3208 C.3       1 <0>        -0.1572
      2 C2         -2.5315    1.0209   -1.3171 C.3       1 <0>        -0.1213
      3 C3         -3.7566    0.2472   -0.8260 C.3       1 <0>        -0.1345
      4 C4         -3.4460   -1.2509   -0.8222 C.3       1 <0>         0.0994
      5 N1         -4.6191   -1.9917   -0.3520 N.pl3     1 <0>        -0.6389
      6 C5         -4.5757   -3.3743   -0.2627 C.cat     1 <0>         0.3075
      7 N2         -5.5229   -4.1984    0.1284 N.pl3     1 <0>        -0.5445
      8 C6         -5.3384   -5.5169    0.1642 C.2       1 <0>         0.0825
      9 C7         -4.1090   -5.9304   -0.2327 C.2       1 <0>        -0.1694
     10 S1         -3.2985   -4.4087   -0.6358 S.3       1 <0>         0.3399
     11 C8         -3.6027   -7.3298   -0.3047 C.3       1 <0>        -0.0358
     12 C9         -4.5608   -8.2405    0.4676 C.3       1 <0>        -0.0457
     13 C10        -4.3815   -8.0545    1.9733 C.3       1 <0>        -0.1112
     14 C11        -5.3022   -9.0327    2.7091 C.3       1 <0>        -0.1182
     15 C12        -6.7555   -8.7792    2.3076 C.3       1 <0>        -0.1060
     16 H1         -7.0391   -7.7670    2.5956 H         1 <0>         0.0915
     17 C13        -6.9164   -8.9405    0.7940 C.3       1 <0>         0.1127
     18 H2         -7.9551   -8.7626    0.5155 H         1 <0>         0.0689
     19 C14        -6.0108   -7.9149    0.0914 C.3       1 <0>        -0.0616
     20 H3         -6.1414   -7.9755   -0.9890 H         1 <0>         0.0985
     21 C15        -6.3879   -6.5222    0.6097 C.3       1 <0>        -0.0305
     22 H4         -6.4352   -6.5400    1.6985 H         1 <0>         0.1232
     23 C16        -7.7520   -6.1197    0.0458 C.3       1 <0>        -0.1637
     24 O1         -6.5366  -10.2634    0.4095 O.3       1 <0>        -0.5424
     25 C17        -7.6622   -9.7833    3.0221 C.3       1 <0>        -0.1126
     26 H5         -7.3773  -10.7964    2.7381 H         1 <0>         0.0953
     27 C18        -9.1172   -9.5315    2.6217 C.3       1 <0>        -0.1512
     28 C19        -7.5160   -9.6198    4.5130 C.2       1 <0>         0.5247
     29 O2         -7.1922   -8.5468    4.9765 O.2       1 <0>        -0.5398
     30 N3         -7.7451  -10.6658    5.3314 N.am      1 <0>        -0.6114
     31 C20        -8.2438  -11.9439    4.8013 C.3       1 <0>         0.1076
     32 C21        -7.3395  -13.0697    5.3143 C.3       1 <0>         0.0380
     33 N4         -7.2539  -12.9958    6.7789 N.3       1 <0>        -0.5428
     34 C22        -6.6280  -11.7398    7.2134 C.3       1 <0>         0.0403
     35 C23        -7.4973  -10.5615    6.7774 C.3       1 <0>         0.1150
     36 C24        -6.5378  -14.1569    7.3237 C.3       1 <0>         0.0237
     37 C25        -4.2638   -9.6997    0.1162 C.3       1 <0>        -0.1421
     38 H6         -1.9693    3.0703   -1.6707 H         1 <0>         0.0648
     39 H7         -3.6847    2.7137   -1.9843 H         1 <0>         0.0579
     40 H8         -3.0937    2.8405   -0.3101 H         1 <0>         0.0580
     41 H9         -2.2799    0.6995   -2.3278 H         1 <0>         0.0713
     42 H10        -1.6888    0.8263   -0.6536 H         1 <0>         0.0713
     43 H11        -4.0082    0.5686    0.1847 H         1 <0>         0.0811
     44 H12        -4.5992    0.4419   -1.4895 H         1 <0>         0.0811
     45 H13        -3.1944   -1.5723   -1.8329 H         1 <0>         0.0963
     46 H14        -2.6033   -1.4456   -0.1587 H         1 <0>         0.0962
     47 H15        -5.4262   -1.5148   -0.1032 H         1 <0>         0.4286
     48 H16        -3.5555   -7.6482   -1.3461 H         1 <0>         0.1076
     49 H17        -2.6094   -7.3825    0.1410 H         1 <0>         0.1045
     50 H18        -3.3450   -8.2546    2.2447 H         1 <0>         0.0734
     51 H19        -4.6412   -7.0321    2.2480 H         1 <0>         0.0577
     52 H20        -5.0273  -10.0547    2.4484 H         1 <0>         0.0770
     53 H21        -5.1939   -8.8928    3.7846 H         1 <0>         0.0723
     54 H22        -7.7044   -6.1027   -1.0431 H         1 <0>         0.0712
     55 H23        -8.5044   -6.8407    0.3654 H         1 <0>         0.0875
     56 H24        -8.0191   -5.1288    0.4132 H         1 <0>         0.0578
     57 H25        -7.0614  -10.9602    0.8268 H         1 <0>         0.3723
     58 H26        -9.2463   -9.7541    1.5625 H         1 <0>         0.0715
     59 H27        -9.7724  -10.1736    3.2103 H         1 <0>         0.0673
     60 H28        -9.3695   -8.4874    2.8069 H         1 <0>         0.0660
     61 H29        -9.2649  -12.1093    5.1447 H         1 <0>         0.0825
     62 H30        -8.2198  -11.9228    3.7118 H         1 <0>         0.0904
     63 H31        -7.7572  -14.0333    5.0225 H         1 <0>         0.0916
     64 H32        -6.3433  -12.9599    4.8858 H         1 <0>         0.0396
     65 H33        -6.5297  -11.7389    8.2990 H         1 <0>         0.0914
     66 H34        -5.6417  -11.6485    6.7584 H         1 <0>         0.0381
     67 H35        -6.9801   -9.6267    6.9938 H         1 <0>         0.0957
     68 H36        -8.4454  -10.5914    7.3145 H         1 <0>         0.0776
     69 H37        -5.5274  -14.1849    6.9156 H         1 <0>         0.0276
     70 H38        -6.4888  -14.0769    8.4097 H         1 <0>         0.0730
     71 H39        -7.0656  -15.0705    7.0501 H         1 <0>         0.0735
     72 H40        -3.1855   -9.8585    0.1054 H         1 <0>         0.0472
     73 H41        -4.7198  -10.3527    0.8603 H         1 <0>         0.0974
     74 H42        -4.6744   -9.9274   -0.8675 H         1 <0>         0.0641
     75 H43        -6.3808   -3.8354    0.3989 H         1 <0>         0.4296
@<TRIPOS>BOND
     1    1    2 1
     2    1   38 1
     3    1   39 1
     4    1   40 1
     5    2    3 1
     6    2   41 1
     7    2   42 1
     8    3    4 1
     9    3   43 1
    10    3   44 1
    11    4    5 1
    12    4   45 1
    13    4   46 1
    14    5    6 1
    15    5   47 1
    16    6   10 1
    17    6    7 2
    18    7    8 1
    19    7   75 1
    20    8   21 1
    21    8    9 2
    22    9   10 1
    23    9   11 1
    24   11   12 1
    25   11   48 1
    26   11   49 1
    27   12   19 1
    28   12   13 1
    29   12   37 1
    30   13   14 1
    31   13   50 1
    32   13   51 1
    33   14   15 1
    34   14   52 1
    35   14   53 1
    36   15   16 1
    37   15   17 1
    38   15   25 1
    39   17   18 1
    40   17   19 1
    41   17   24 1
    42   19   20 1
    43   19   21 1
    44   21   22 1
    45   21   23 1
    46   23   54 1
    47   23   55 1
    48   23   56 1
    49   24   57 1
    50   25   26 1
    51   25   27 1
    52   25   28 1
    53   27   58 1
    54   27   59 1
    55   27   60 1
    56   28   29 2
    57   28   30 am
    58   30   35 1
    59   30   31 1
    60   31   32 1
    61   31   61 1
    62   31   62 1
    63   32   33 1
    64   32   63 1
    65   32   64 1
    66   33   34 1
    67   33   36 1
    68   34   35 1
    69   34   65 1
    70   34   66 1
    71   35   67 1
    72   35   68 1
    73   36   69 1
    74   36   70 1
    75   36   71 1
    76   37   72 1
    77   37   73 1
    78   37   74 1
@<TRIPOS>MOLECULE
ZINC01264693
   48    51     0     0     0
SMALL
USER_CHARGES

@<TRIPOS>ATOM
      1 C1          2.1091   -0.2576   -2.3560 C.ar      1 <0>        -0.0863
      2 C2          2.9672    0.7506   -1.9584 C.ar      1 <0>        -0.1079
      3 C3          4.1685    0.4364   -1.3509 C.ar      1 <0>        -0.1025
      4 C4          4.5114   -0.8861   -1.1406 C.ar      1 <0>        -0.1391
      5 C5          3.6530   -1.8943   -1.5373 C.ar      1 <0>        -0.1012
      6 C6          2.4523   -1.5801   -2.1461 C.ar      1 <0>        -0.1067
      7 C7          5.8215   -1.2288   -0.4792 C.3       1 <0>        -0.0724
      8 C8          5.6261   -1.3046    1.0131 C.cat     1 <0>         0.5845
      9 N1          5.2891   -2.4918    1.5910 N.pl3     1 <0>        -0.6411
     10 C9          5.7448   -2.7578    2.9651 C.3       1 <0>         0.1390
     11 C10         5.6133   -1.4758    3.7484 C.2       1 <0>        -0.3236
     12 C11         5.4460   -1.4907    5.1374 C.2       1 <0>         0.5714
     13 N2          5.3395   -0.3215    5.8018 N.am      1 <0>        -0.6393
     14 C12         5.4008    0.8511    5.1467 C.2       1 <0>         0.7065
     15 O1          5.3108    1.8883    5.7746 O.2       1 <0>        -0.4654
     16 N3          5.5601    0.9021    3.8109 N.am      1 <0>        -0.4647
     17 C13         5.6600   -0.2661    3.0811 C.2       1 <0>         0.4609
     18 N4          5.7865   -0.2328    1.7428 N.pl3     1 <0>        -0.5387
     19 C14         5.6237    2.1411    3.1605 C.ar      1 <0>         0.0398
     20 C15         6.8477    2.7731    2.9858 C.ar      1 <0>        -0.0882
     21 C16         6.9072    3.9947    2.3442 C.ar      1 <0>        -0.1012
     22 C17         5.7494    4.5886    1.8763 C.ar      1 <0>        -0.0725
     23 C18         4.5289    3.9619    2.0492 C.ar      1 <0>        -0.1018
     24 C19         4.4636    2.7371    2.6841 C.ar      1 <0>        -0.0858
     25 O2          5.3974   -2.5491    5.7409 O.2       1 <0>        -0.4518
     26 C20         7.2070   -3.2078    2.9486 C.3       1 <0>         0.4553
     27 F1          7.9985   -2.2008    2.3858 F         1 <0>        -0.1639
     28 F2          7.6325   -3.4586    4.2575 F         1 <0>        -0.1242
     29 F3          7.3271   -4.3754    2.1874 F         1 <0>        -0.1441
     30 C21         4.8739   -3.8444    3.5990 C.3       1 <0>         0.4759
     31 F4          4.7353   -4.9115    2.7050 F         1 <0>        -0.1533
     32 F5          5.4777   -4.2980    4.7767 F         1 <0>        -0.1070
     33 F6          3.6123   -3.3172    3.8950 F         1 <0>        -0.1451
     34 H1          1.1686   -0.0119   -2.8266 H         1 <0>         0.1370
     35 H2          2.6992    1.7839   -2.1228 H         1 <0>         0.1370
     36 H3          4.8392    1.2241   -1.0410 H         1 <0>         0.1281
     37 H4          3.9211   -2.9276   -1.3733 H         1 <0>         0.1323
     38 H5          1.7818   -2.3678   -2.4564 H         1 <0>         0.1385
     39 H6          6.1742   -2.1916   -0.8489 H         1 <0>         0.1606
     40 H7          6.5576   -0.4589   -0.7106 H         1 <0>         0.1568
     41 H8          5.9983    0.6082    1.3084 H         1 <0>         0.4647
     42 H9          7.7523    2.3100    3.3516 H         1 <0>         0.1386
     43 H10         7.8589    4.4867    2.2080 H         1 <0>         0.1482
     44 H11         5.7984    5.5441    1.3752 H         1 <0>         0.1459
     45 H12         3.6263    4.4285    1.6830 H         1 <0>         0.1470
     46 H13         3.5107    2.2459    2.8146 H         1 <0>         0.1360
     47 H14         5.2169   -0.3268    6.7641 H         1 <0>         0.4546
     48 H15         4.7608   -3.1464    1.1080 H         1 <0>         0.4695
@<TRIPOS>BOND
     1    1    6 ar
     2    1    2 ar
     3    1   34 1
     4    2    3 ar
     5    2   35 1
     6    3    4 ar
     7    3   36 1
     8    4    5 ar
     9    4    7 1
    10    5    6 ar
    11    5   37 1
    12    6   38 1
    13    7    8 1
    14    7   39 1
    15    7   40 1
    16    8   18 2
    17    8    9 1
    18    9   10 1
    19    9   48 1
    20   10   11 1
    21   10   26 1
    22   10   30 1
    23   11   17 2
    24   11   12 1
    25   12   13 am
    26   12   25 2
    27   13   14 am
    28   13   47 1
    29   14   16 am
    30   14   15 2
    31   16   17 1
    32   16   19 1
    33   17   18 1
    34   18   41 1
    35   19   24 ar
    36   19   20 ar
    37   20   21 ar
    38   20   42 1
    39   21   22 ar
    40   21   43 1
    41   22   23 ar
    42   22   44 1
    43   23   24 ar
    44   23   45 1
    45   24   46 1
    46   26   27 1
    47   26   28 1
    48   26   29 1
    49   30   31 1
    50   30   32 1
    51   30   33 1
@<TRIPOS>MOLECULE
ZINC35081841
   33    35     0     0     0
SMALL
USER_CHARGES

@<TRIPOS>ATOM
      1 C1         -0.0187    1.5258    0.0104 C.3       1 <0>        -0.1558
      2 C2          0.0021   -0.0041    0.0020 C.3       1 <0>         0.0758
      3 H1          0.5195   -0.3769   -0.8819 H         1 <0>         0.0965
      4 C3         -1.4350   -0.5721    0.0762 C.3       1 <0>        -0.1123
      5 C4         -1.2415   -1.8022    0.9416 C.ar      1 <0>        -0.1630
      6 C5         -2.0373   -2.9015    1.1774 C.ar      1 <0>        -0.0286
      7 C6         -1.6001   -3.9019    2.0271 C.ar      1 <0>        -0.1855
      8 C7         -0.3637   -3.7931    2.6369 C.ar      1 <0>        -0.0772
      9 C8          0.4333   -2.6915    2.4049 C.ar      1 <0>        -0.1274
     10 C9         -0.0009   -1.6783    1.5536 C.ar      1 <0>         0.1482
     11 O1          0.6116   -0.5118    1.2011 O.3       1 <0>        -0.2912
     12 C10        -2.4684   -5.1057    2.2877 C.3       1 <0>         0.2022
     13 H2         -3.2048   -5.2021    1.4899 H         1 <0>         0.1674
     14 C11        -3.1766   -4.9381    3.6073 C.2       1 <0>        -0.2414
     15 C12        -4.4511   -4.5450    3.8478 C.2       1 <0>        -0.0766
     16 C13        -4.8917   -4.4615    5.1557 C.2       1 <0>        -0.1253
     17 C14        -4.0349   -4.7757    6.1590 C.2       1 <0>        -0.1304
     18 S1         -2.5566   -5.2133    5.2587 S.3       1 <0>         0.1133
     19 Br1        -4.3314   -4.7612    8.0266 Br        1 <0>         0.0746
     20 N1         -1.6321   -6.3127    2.3307 N.4       1 <0>        -0.6372
     21 H3          1.0039    1.9031    0.0027 H         1 <0>         0.0754
     22 H4         -0.5459    1.8868   -0.8726 H         1 <0>         0.0865
     23 H5         -0.5289    1.8773    0.9072 H         1 <0>         0.0702
     24 H6         -2.1103    0.1378    0.5537 H         1 <0>         0.1016
     25 H7         -1.7972   -0.8460   -0.9147 H         1 <0>         0.1017
     26 H8         -3.0024   -2.9822    0.6994 H         1 <0>         0.1382
     27 H9         -0.0205   -4.5747    3.2985 H         1 <0>         0.1264
     28 H10         1.3974   -2.6142    2.8854 H         1 <0>         0.1437
     29 H11        -5.1126   -4.3002    3.0300 H         1 <0>         0.1535
     30 H12        -5.9025   -4.1506    5.3749 H         1 <0>         0.1587
     31 H13        -2.2135   -7.1187    2.5052 H         1 <0>         0.4424
     32 H14        -1.1579   -6.4249    1.4472 H         1 <0>         0.4455
     33 H15        -0.9505   -6.2234    3.0693 H         1 <0>         0.4300
@<TRIPOS>BOND
     1    1    2 1
     2    1   21 1
     3    1   22 1
     4    1   23 1
     5    2    3 1
     6    2   11 1
     7    2    4 1
     8    4    5 1
     9    4   24 1
    10    4   25 1
    11    5   10 ar
    12    5    6 ar
    13    6    7 ar
    14    6   26 1
    15    7    8 ar
    16    7   12 1
    17    8    9 ar
    18    8   27 1
    19    9   10 ar
    20    9   28 1
    21   10   11 1
    22   12   13 1
    23   12   14 1
    24   12   20 1
    25   14   18 1
    26   14   15 2
    27   15   16 1
    28   15   29 1
    29   16   17 2
    30   16   30 1
    31   17   18 1
    32   17   19 1
    33   20   31 1
    34   20   32 1
    35   20   33 1
@<TRIPOS>MOLECULE
ZINC43022477
   41    42     0     0     0
SMALL
USER_CHARGES

@<TRIPOS>ATOM
      1 C1         -0.2596    1.5136    0.0499 C.3       1 <0>        -0.1254
      2 C2         -0.2174    0.0073    0.0303 C.ar      1 <0>        -0.0418
      3 C3         -0.2947   -0.6704   -1.1726 C.ar      1 <0>        -0.1369
      4 C4         -0.2563   -2.0521   -1.1939 C.ar      1 <0>        -0.0780
      5 C5         -0.1411   -2.7595   -0.0126 C.ar      1 <0>        -0.2123
      6 C6         -0.0634   -2.0820    1.1953 C.ar      1 <0>         0.1094
      7 C7         -0.0960   -0.6950    1.2135 C.ar      1 <0>        -0.1052
      8 C8         -0.0052    0.0444    2.5235 C.3       1 <0>        -0.1099
      9 O1          0.0500   -2.7755    2.3585 O.3       1 <0>        -0.3037
     10 C9         -0.0425   -4.1991    2.2768 C.3       1 <0>         0.1063
     11 H1         -0.5407   -4.4782    1.3483 H         1 <0>         0.1324
     12 C10        -0.8351   -4.7192    3.4482 C.ar      1 <0>        -0.1305
     13 C11        -0.7396   -4.0959    4.6787 C.ar      1 <0>        -0.1107
     14 C12        -1.4664   -4.5725    5.7535 C.ar      1 <0>        -0.1005
     15 C13        -2.2891   -5.6725    5.5986 C.ar      1 <0>        -0.0682
     16 C14        -2.3853   -6.2960    4.3678 C.ar      1 <0>        -0.0839
     17 C15        -1.6617   -5.8155    3.2910 C.ar      1 <0>        -0.0686
     18 Br1        -3.5101   -7.8012    4.1555 Br        1 <0>        -0.0179
     19 C16         1.3628   -4.8038    2.3031 C.3       1 <0>         0.0181
     20 H2          1.2976   -5.8812    2.1516 H         1 <0>         0.1569
     21 C17         2.2064   -4.1822    1.1883 C.3       1 <0>        -0.1915
     22 N1          1.9898   -4.5291    3.6028 N.4       1 <0>        -0.6348
     23 H3          0.7538    1.9065   -0.0328 H         1 <0>         0.0792
     24 H4         -0.8574    1.8713   -0.7884 H         1 <0>         0.0754
     25 H5         -0.7055    1.8525    0.9849 H         1 <0>         0.0744
     26 H6         -0.3855   -0.1193   -2.0970 H         1 <0>         0.1312
     27 H7         -0.3168   -2.5791   -2.1346 H         1 <0>         0.1312
     28 H8         -0.1119   -3.8389   -0.0297 H         1 <0>         0.1280
     29 H9         -1.0068    0.1933    2.9269 H         1 <0>         0.0729
     30 H10         0.5878   -0.5376    3.2289 H         1 <0>         0.0636
     31 H11         0.4691    1.0125    2.3621 H         1 <0>         0.0734
     32 H12        -0.0966   -3.2367    4.8002 H         1 <0>         0.1356
     33 H13        -1.3912   -4.0855    6.7146 H         1 <0>         0.1454
     34 H14        -2.8564   -6.0452    6.4386 H         1 <0>         0.1457
     35 H15        -1.7394   -6.2997    2.3288 H         1 <0>         0.1424
     36 H16         2.2716   -3.1047    1.3397 H         1 <0>         0.0896
     37 H17         3.2075   -4.6129    1.2070 H         1 <0>         0.0912
     38 H18         1.7411   -4.3860    0.2239 H         1 <0>         0.1108
     39 H19         1.4334   -4.9390    4.3380 H         1 <0>         0.4329
     40 H20         2.9165   -4.9278    3.6202 H         1 <0>         0.4375
     41 H21         2.0501   -3.5317    3.7430 H         1 <0>         0.4365
@<TRIPOS>BOND
     1    1    2 1
     2    1   23 1
     3    1   24 1
     4    1   25 1
     5    2    7 ar
     6    2    3 ar
     7    3    4 ar
     8    3   26 1
     9    4    5 ar
    10    4   27 1
    11    5    6 ar
    12    5   28 1
    13    6    7 ar
    14    6    9 1
    15    7    8 1
    16    8   29 1
    17    8   30 1
    18    8   31 1
    19    9   10 1
    20   10   11 1
    21   10   12 1
    22   10   19 1
    23   12   17 ar
    24   12   13 ar
    25   13   14 ar
    26   13   32 1
    27   14   15 ar
    28   14   33 1
    29   15   16 ar
    30   15   34 1
    31   16   17 ar
    32   16   18 1
    33   17   35 1
    34   19   20 1
    35   19   21 1
    36   19   22 1
    37   21   36 1
    38   21   37 1
    39   21   38 1
    40   22   39 1
    41   22   40 1
    42   22   41 1
@<TRIPOS>MOLECULE
ZINC43259620
   39    40     0     0     0
SMALL
USER_CHARGES

@<TRIPOS>ATOM
      1 C1         -0.6675    1.9512    0.5860 C.3       1 <0>        -0.1781
      2 C2         -0.0041    0.5771    0.6984 C.3       1 <0>         0.0428
      3 H1          0.8817    0.5483    0.0639 H         1 <0>         0.1480
      4 C3         -0.9894   -0.5033    0.2481 C.3       1 <0>         0.1442
      5 H2         -1.3608   -0.2638   -0.7483 H         1 <0>         0.1499
      6 C4         -0.2911   -1.8384    0.2164 C.2       1 <0>        -0.2272
      7 C5         -0.0925   -2.6728   -0.8329 C.2       1 <0>        -0.0918
      8 C6          0.5833   -3.8611   -0.6263 C.2       1 <0>        -0.1157
      9 C7          1.0275   -4.1561    0.6208 C.2       1 <0>        -0.1372
     10 S1          0.4959   -2.7272    1.5497 S.3       1 <0>         0.0466
     11 Br1         1.9714   -5.6816    1.2189 Br        1 <0>         0.0700
     12 N1         -2.1156   -0.5621    1.1894 N.3       1 <0>        -0.5247
     13 C8         -1.7831   -1.3890    2.3572 C.3       1 <0>        -0.0165
     14 C9         -3.3312   -1.0524    0.5261 C.3       1 <0>         0.0798
     15 C10        -3.6854   -0.1420   -0.6679 C.3       1 <0>        -0.1240
     16 C11        -5.2332   -0.0834   -0.6548 C.3       1 <0>        -0.1254
     17 C12        -5.5608   -0.0414    0.8585 C.3       1 <0>        -0.1229
     18 C13        -4.5236   -0.9884    1.4966 C.3       1 <0>        -0.1205
     19 N2          0.3851    0.3339    2.0939 N.4       1 <0>        -0.6411
     20 H3          0.0040    2.7124    0.9832 H         1 <0>         0.0838
     21 H4         -0.8823    2.1664   -0.4607 H         1 <0>         0.1065
     22 H5         -1.5969    1.9536    1.1556 H         1 <0>         0.0983
     23 H6         -0.4571   -2.4135   -1.8159 H         1 <0>         0.1523
     24 H7          0.7546   -4.5440   -1.4452 H         1 <0>         0.1568
     25 H8         -0.8106   -1.0906    2.7486 H         1 <0>         0.0400
     26 H9         -2.5423   -1.2522    3.1272 H         1 <0>         0.1065
     27 H10        -1.7498   -2.4378    2.0620 H         1 <0>         0.0710
     28 H11        -3.1825   -2.0767    0.1844 H         1 <0>         0.0596
     29 H12        -3.2648    0.8536   -0.5265 H         1 <0>         0.0805
     30 H13        -3.3281   -0.5793   -1.6002 H         1 <0>         0.0678
     31 H14        -5.5898    0.8184   -1.1525 H         1 <0>         0.0745
     32 H15        -5.6574   -0.9746   -1.1173 H         1 <0>         0.0707
     33 H16        -5.4430    0.9704    1.2463 H         1 <0>         0.0700
     34 H17        -6.5721   -0.4052    1.0400 H         1 <0>         0.0707
     35 H18        -4.9541   -1.9815    1.6251 H         1 <0>         0.0704
     36 H19        -4.2003   -0.5935    2.4597 H         1 <0>         0.0760
     37 H20        -0.4104    0.4843    2.6960 H         1 <0>         0.4390
     38 H21         0.7064   -0.6175    2.1925 H         1 <0>         0.4160
     39 H22         1.1266    0.9677    2.3516 H         1 <0>         0.4334
@<TRIPOS>BOND
     1    1    2 1
     2    1   20 1
     3    1   21 1
     4    1   22 1
     5    2    3 1
     6    2    4 1
     7    2   19 1
     8    4    5 1
     9    4    6 1
    10    4   12 1
    11    6   10 1
    12    6    7 2
    13    7    8 1
    14    7   23 1
    15    8    9 2
    16    8   24 1
    17    9   10 1
    18    9   11 1
    19   12   13 1
    20   12   14 1
    21   13   25 1
    22   13   26 1
    23   13   27 1
    24   14   18 1
    25   14   15 1
    26   14   28 1
    27   15   16 1
    28   15   29 1
    29   15   30 1
    30   16   17 1
    31   16   31 1
    32   16   32 1
    33   17   18 1
    34   17   33 1
    35   17   34 1
    36   18   35 1
    37   18   36 1
    38   19   37 1
    39   19   38 1
    40   19   39 1
@<TRIPOS>MOLECULE
ZINC48796670
   34    36     0     0     0
SMALL
USER_CHARGES

@<TRIPOS>ATOM
      1 C1         -0.0184    1.5028    0.0103 C.3       1 <0>        -0.1271
      2 C2          0.0021   -0.0041    0.0020 C.ar      1 <0>        -0.0670
      3 C3          0.0057   -0.6888   -1.1991 C.ar      1 <0>        -0.0875
      4 C4          0.0245   -2.0707   -1.2067 C.ar      1 <0>        -0.0989
      5 C5          0.0400   -2.7685   -0.0132 C.ar      1 <0>        -0.1186
      6 C6          0.0373   -2.0840    1.1875 C.ar      1 <0>        -0.1523
      7 C7          0.0229   -0.7015    1.1951 C.ar      1 <0>        -0.0835
      8 C8          0.0538   -2.8445    2.4885 C.3       1 <0>         0.1917
      9 H1          0.4009   -2.1897    3.2877 H         1 <0>         0.1759
     10 C9         -1.3377   -3.3291    2.8047 C.2       1 <0>        -0.0550
     11 C10        -2.1805   -2.7359    3.6610 C.2       1 <0>        -0.1113
     12 C11        -3.4063   -3.5433    3.6543 C.ar      1 <0>        -0.1381
     13 C12        -4.6316   -3.4609    4.3145 C.ar      1 <0>        -0.0406
     14 C13        -5.5939   -4.4030    4.0782 C.ar      1 <0>        -0.1221
     15 C14        -5.3585   -5.4396    3.1867 C.ar      1 <0>        -0.0394
     16 C15        -4.1527   -5.5378    2.5243 C.ar      1 <0>        -0.0919
     17 C16        -3.1612   -4.5898    2.7501 C.ar      1 <0>         0.0968
     18 O1         -1.9156   -4.4160    2.2642 O.3       1 <0>        -0.1878
     19 Br1        -3.8492   -6.9575    1.3126 Br        1 <0>        -0.0218
     20 N1          0.9584   -3.9959    2.3711 N.4       1 <0>        -0.6368
     21 H2          1.0042    1.8801    0.0026 H         1 <0>         0.0819
     22 H3         -0.5455    1.8639   -0.8728 H         1 <0>         0.0769
     23 H4         -0.5286    1.8543    0.9071 H         1 <0>         0.0743
     24 H5         -0.0064   -0.1437   -2.1314 H         1 <0>         0.1375
     25 H6          0.0266   -2.6056   -2.1449 H         1 <0>         0.1379
     26 H7          0.0540   -3.8484   -0.0191 H         1 <0>         0.1213
     27 H8          0.0246   -0.1666    2.1333 H         1 <0>         0.1363
     28 H9         -1.9952   -1.8431    4.2398 H         1 <0>         0.1742
     29 H10        -4.8197   -2.6563    5.0100 H         1 <0>         0.1443
     30 H11        -6.5434   -4.3400    4.5892 H         1 <0>         0.1506
     31 H12        -6.1271   -6.1775    3.0099 H         1 <0>         0.1549
     32 H13         0.6371   -4.6021    1.6312 H         1 <0>         0.4379
     33 H14         1.8901   -3.6715    2.1594 H         1 <0>         0.4446
     34 H15         0.9695   -4.5051    3.2421 H         1 <0>         0.4426
@<TRIPOS>BOND
     1    1    2 1
     2    1   21 1
     3    1   22 1
     4    1   23 1
     5    2    7 ar
     6    2    3 ar
     7    3    4 ar
     8    3   24 1
     9    4    5 ar
    10    4   25 1
    11    5    6 ar
    12    5   26 1
    13    6    7 ar
    14    6    8 1
    15    7   27 1
    16    8    9 1
    17    8   10 1
    18    8   20 1
    19   10   18 1
    20   10   11 2
    21   11   12 1
    22   11   28 1
    23   12   17 ar
    24   12   13 ar
    25   13   14 ar
    26   13   29 1
    27   14   15 ar
    28   14   30 1
    29   15   16 ar
    30   15   31 1
    31   16   17 ar
    32   16   19 1
    33   17   18 1
    34   20   32 1
    35   20   33 1
    36   20   34 1
@<TRIPOS>MOLECULE
ZINC58872375
   35    36     0     0     0
SMALL
USER_CHARGES

@<TRIPOS>ATOM
      1 C1         -0.0184    1.5028    0.0103 C.3       1 <0>        -0.0886
      2 C2          0.0021   -0.0041    0.0020 C.2       1 <0>        -0.0747
      3 C3         -1.0392   -0.8719    0.0017 C.2       1 <0>        -0.1855
      4 C4         -0.7802   -2.2296   -0.0075 C.2       1 <0>        -0.0674
      5 C5          0.5074   -2.6532   -0.0160 C.2       1 <0>        -0.2682
      6 S1          1.4039   -1.1093   -0.0179 S.3       1 <0>         0.0475
      7 C6          1.0430   -4.0617   -0.0269 C.3       1 <0>         0.1371
      8 H1          0.2712   -4.7467    0.3242 H         1 <0>         0.1559
      9 C7          1.4518   -4.4409   -1.4516 C.3       1 <0>        -0.1817
     10 N1          2.2129   -4.1475    0.8574 N.4       1 <0>        -0.5112
     11 C8          2.6625   -5.5436    0.9407 C.3       1 <0>         0.0448
     12 C9          3.8626   -5.6316    1.8479 C.ar      1 <0>        -0.1735
     13 C10         5.1349   -5.4895    1.3250 C.ar      1 <0>        -0.0604
     14 C11         6.2369   -5.5701    2.1541 C.ar      1 <0>        -0.1358
     15 C12         6.0668   -5.7935    3.5126 C.ar      1 <0>         0.1775
     16 C13         4.7890   -5.9354    4.0354 C.ar      1 <0>        -0.1280
     17 C14         3.6894   -5.8486    3.2021 C.ar      1 <0>        -0.0487
     18 Br1         4.5522   -6.2406    5.8865 Br        1 <0>        -0.0059
     19 O1          7.1497   -5.8736    4.3302 O.3       1 <0>        -0.4802
     20 H2          1.0042    1.8801    0.0026 H         1 <0>         0.0810
     21 H3         -0.5455    1.8639   -0.8728 H         1 <0>         0.0960
     22 H4         -0.5286    1.8543    0.9071 H         1 <0>         0.0954
     23 H5         -2.0560   -0.5079    0.0090 H         1 <0>         0.1498
     24 H6         -1.5916   -2.9424   -0.0076 H         1 <0>         0.1442
     25 H7          0.5838   -4.3773   -2.1078 H         1 <0>         0.1105
     26 H8          2.2236   -3.7560   -1.8027 H         1 <0>         0.0839
     27 H9          1.8393   -5.4597   -1.4595 H         1 <0>         0.0894
     28 H10         2.9573   -3.5760    0.4868 H         1 <0>         0.4247
     29 H11         1.8583   -6.1610    1.3410 H         1 <0>         0.1444
     30 H12         2.9321   -5.8983   -0.0541 H         1 <0>         0.1459
     31 H13         5.2671   -5.3156    0.2674 H         1 <0>         0.1440
     32 H14         7.2303   -5.4597    1.7448 H         1 <0>         0.1526
     33 H15         2.6945   -5.9549    3.6087 H         1 <0>         0.1461
     34 H16         7.4231   -5.0253    4.7050 H         1 <0>         0.4084
     35 H17         1.9633   -3.8191    1.7783 H         1 <0>         0.4307
@<TRIPOS>BOND
     1    1    2 1
     2    1   20 1
     3    1   21 1
     4    1   22 1
     5    2    6 1
     6    2    3 2
     7    3    4 1
     8    3   23 1
     9    4    5 2
    10    4   24 1
    11    5    6 1
    12    5    7 1
    13    7    8 1
    14    7    9 1
    15    7   10 1
    16    9   25 1
    17    9   26 1
    18    9   27 1
    19   10   11 1
    20   10   28 1
    21   10   35 1
    22   11   12 1
    23   11   29 1
    24   11   30 1
    25   12   17 ar
    26   12   13 ar
    27   13   14 ar
    28   13   31 1
    29   14   15 ar
    30   14   32 1
    31   15   16 ar
    32   15   19 1
    33   16   17 ar
    34   16   18 1
    35   17   33 1
    36   19   34 1
@<TRIPOS>MOLECULE
ZINC20586552
   32    33     0     0     0
SMALL
USER_CHARGES
(R)-(5-bromo-2-methoxy-phenyl)-(3-iodophenyl)methanamine
@<TRIPOS>ATOM
      1 C1          4.4786    1.4867    2.8256 C.3       1 <0>         0.0157
      2 O1          3.7980    2.3043    1.8715 O.3       1 <0>        -0.3110
      3 C2          3.4346    3.5504    2.2743 C.ar      1 <0>         0.1794
      4 C3          3.7276    3.9774    3.5615 C.ar      1 <0>        -0.1870
      5 C4          3.3579    5.2444    3.9688 C.ar      1 <0>        -0.0253
      6 C5          2.6952    6.0874    3.0943 C.ar      1 <0>        -0.1179
      7 C6          2.4072    5.6657    1.8088 C.ar      1 <0>        -0.0631
      8 C7          2.7707    4.3972    1.3991 C.ar      1 <0>        -0.1652
      9 C8          2.4516    3.9363    0.0002 C.3       1 <0>         0.1600
     10 H1          3.2658    3.3055   -0.3861 H         1 <0>         0.1583
     11 C9          1.1566    3.1655    0.0085 C.ar      1 <0>        -0.1323
     12 C10         1.1749    1.7831    0.0004 C.ar      1 <0>        -0.0616
     13 C11        -0.0126    1.0758    0.0080 C.ar      1 <0>        -0.1008
     14 C12        -1.2191    1.7506    0.0173 C.ar      1 <0>        -0.0602
     15 C13        -1.2377    3.1332    0.0307 C.ar      1 <0>        -0.0944
     16 C14        -0.0492    3.8406    0.0236 C.ar      1 <0>        -0.0864
     17 I1         -3.0658    4.1562    0.0536 I         1 <0>        -0.0114
     18 N1          2.3211    5.1035   -0.8821 N.4       1 <0>        -0.6887
     19 Br1         2.1896    7.8212    3.6548 Br        1 <0>        -0.0189
     20 H2          4.7127    0.5121    2.3725 H         1 <0>         0.1156
     21 H3          3.8354    1.3371    3.7053 H         1 <0>         0.0675
     22 H4          5.4115    1.9816    3.1333 H         1 <0>         0.0679
     23 H5          4.2448    3.3198    4.2444 H         1 <0>         0.1515
     24 H6          3.5858    5.5771    4.9707 H         1 <0>         0.1491
     25 H7          1.8938    6.3268    1.1263 H         1 <0>         0.1314
     26 H8          2.1174    1.2557   -0.0114 H         1 <0>         0.1427
     27 H9          0.0021   -0.0041    0.0020 H         1 <0>         0.1452
     28 H10        -2.1470    1.1980    0.0184 H         1 <0>         0.1413
     29 H11        -0.0635    4.9205    0.0295 H         1 <0>         0.1227
     30 H12         2.0882    4.7671   -1.9032 H         1 <0>         0.4651
     31 H13         3.2663    5.6661   -0.8881 H         1 <0>         0.4640
     32 H14         1.5111    5.7513   -0.5157 H         1 <0>         0.4469
@<TRIPOS>BOND
     1    1    2 1
     2    1   20 1
     3    1   21 1
     4    1   22 1
     5    2    3 1
     6    3    8 ar
     7    3    4 ar
     8    4    5 ar
     9    4   23 1
    10    5    6 ar
    11    5   24 1
    12    6    7 ar
    13    6   19 1
    14    7    8 ar
    15    7   25 1
    16    8    9 1
    17    9   10 1
    18    9   11 1
    19    9   18 1
    20   11   16 ar
    21   11   12 ar
    22   12   13 ar
    23   12   26 1
    24   13   14 ar
    25   13   27 1
    26   14   15 ar
    27   14   28 1
    28   15   16 ar
    29   15   17 1
    30   16   29 1
    31   18   30 1
    32   18   31 1
    33   18   32 1
@<TRIPOS>MOLECULE
ZINC37332083
   34    36     0     0     0
SMALL
USER_CHARGES

@<TRIPOS>ATOM
      1 C1         -0.0167    1.3778    0.0096 C.ar      1 <0>        -0.0973
      2 C2          1.1711    2.0855    0.0021 C.ar      1 <0>        -0.0623
      3 C3          2.3775    1.4112   -0.0130 C.ar      1 <0>        -0.1390
      4 C4          2.3969    0.0289   -0.0206 C.ar      1 <0>        -0.0843
      5 C5          1.2092   -0.6791   -0.0130 C.ar      1 <0>        -0.0940
      6 C6          0.0021   -0.0041    0.0020 C.ar      1 <0>        -0.0558
      7 I1          1.2381   -2.7739   -0.0252 I         1 <0>        -0.0093
      8 C7          3.6719    2.1829   -0.0217 C.3       1 <0>         0.1428
      9 H1          3.4930    3.1966    0.3366 H         1 <0>         0.1635
     10 C8          4.2161    2.2352   -1.4261 C.ar      1 <0>        -0.1302
     11 C9          5.1465    1.3007   -1.8410 C.ar      1 <0>        -0.1146
     12 C10         5.6481    1.3456   -3.1328 C.ar      1 <0>         0.0780
     13 C11         5.2120    2.3315   -4.0104 C.ar      1 <0>         0.0955
     14 C12         4.2799    3.2673   -3.5884 C.ar      1 <0>        -0.0925
     15 C13         3.7797    3.2146   -2.2997 C.ar      1 <0>        -0.0029
     16 Cl1         2.6071    4.3829   -1.7766 Cl        1 <0>        -0.0328
     17 O1          5.6858    2.3884   -5.2851 O.3       1 <0>        -0.2923
     18 C14         6.8914    1.6654   -5.5564 C.3       1 <0>         0.0164
     19 C15         6.7640    0.2679   -4.9350 C.3       1 <0>         0.0176
     20 O2          6.5666    0.4206   -3.5252 O.3       1 <0>        -0.2989
     21 N1          4.6444    1.5179    0.8558 N.4       1 <0>        -0.6356
     22 H2         -0.9591    1.9049    0.0259 H         1 <0>         0.1480
     23 H3          1.1562    3.1653    0.0076 H         1 <0>         0.1404
     24 H4          3.3396   -0.4980   -0.0327 H         1 <0>         0.1248
     25 H5         -0.9257   -0.5568    0.0082 H         1 <0>         0.1434
     26 H6          5.4835    0.5351   -1.1579 H         1 <0>         0.1380
     27 H7          3.9411    4.0355   -4.2677 H         1 <0>         0.1614
     28 H8          7.0325    1.5771   -6.6336 H         1 <0>         0.1378
     29 H9          7.7404    2.1877   -5.1155 H         1 <0>         0.0894
     30 H10         5.9112   -0.2521   -5.3714 H         1 <0>         0.0891
     31 H11         7.6755   -0.3007   -5.1191 H         1 <0>         0.1372
     32 H12         5.5110    2.0345    0.8500 H         1 <0>         0.4437
     33 H13         4.2800    1.4828    1.7961 H         1 <0>         0.4443
     34 H14         4.8101    0.5794    0.5241 H         1 <0>         0.4304
@<TRIPOS>BOND
     1    1    6 ar
     2    1    2 ar
     3    1   22 1
     4    2    3 ar
     5    2   23 1
     6    3    4 ar
     7    3    8 1
     8    4    5 ar
     9    4   24 1
    10    5    6 ar
    11    5    7 1
    12    6   25 1
    13    8    9 1
    14    8   10 1
    15    8   21 1
    16   10   15 ar
    17   10   11 ar
    18   11   12 ar
    19   11   26 1
    20   12   20 1
    21   12   13 ar
    22   13   14 ar
    23   13   17 1
    24   14   15 ar
    25   14   27 1
    26   15   16 1
    27   17   18 1
    28   18   19 1
    29   18   28 1
    30   18   29 1
    31   19   20 1
    32   19   30 1
    33   19   31 1
    34   21   32 1
    35   21   33 1
    36   21   34 1
@<TRIPOS>MOLECULE
ZINC43021483
   39    40     0     0     0
SMALL
USER_CHARGES

@<TRIPOS>ATOM
      1 C1          0.6026   -0.6556   -1.2677 C.3       1 <0>        -0.1864
      2 C2         -0.1602   -0.2352   -0.0098 C.3       1 <0>         0.0367
      3 H1         -0.3191    0.8431   -0.0246 H         1 <0>         0.1481
      4 C3          0.6524   -0.6140    1.2300 C.3       1 <0>         0.1028
      5 H2          1.6077   -0.0894    1.2124 H         1 <0>         0.1010
      6 C4          0.8960   -2.1012    1.2358 C.ar      1 <0>        -0.1095
      7 C5         -0.0985   -2.9628    1.6603 C.ar      1 <0>        -0.1192
      8 C6          0.1243   -4.3269    1.6659 C.ar      1 <0>        -0.0999
      9 C7          1.3417   -4.8303    1.2471 C.ar      1 <0>        -0.0744
     10 C8          2.3367   -3.9688    0.8220 C.ar      1 <0>        -0.0819
     11 C9          2.1114   -2.6039    0.8116 C.ar      1 <0>        -0.0738
     12 Br1         4.0025   -4.6568    0.2496 Br        1 <0>        -0.0224
     13 N1         -0.0922   -0.2350    2.4382 N.3       1 <0>        -0.5455
     14 C10         0.5979   -0.6990    3.6492 C.3       1 <0>         0.0151
     15 C11        -0.3178    1.2159    2.4841 C.3       1 <0>         0.0968
     16 C12        -1.3885    1.5259    3.4983 C.2       1 <0>        -0.1304
     17 C13        -2.7191    1.5626    3.1247 C.2       1 <0>        -0.1104
     18 C14        -3.6574    1.8448    4.0625 C.2       1 <0>        -0.1767
     19 S1         -2.6604    2.0699    5.5262 S.3       1 <0>         0.1393
     20 C15        -1.0618    1.7674    4.7912 C.2       1 <0>        -0.1518
     21 Br2        -5.5345    1.9684    3.8697 Br        1 <0>         0.0509
     22 N2         -1.4588   -0.9210    0.0276 N.4       1 <0>        -0.6348
     23 H3          0.7553   -1.7348   -1.2563 H         1 <0>         0.0858
     24 H4          0.0268   -0.3795   -2.1510 H         1 <0>         0.0895
     25 H5          1.5690   -0.1521   -1.2918 H         1 <0>         0.1083
     26 H6         -1.0497   -2.5698    1.9879 H         1 <0>         0.1347
     27 H7         -0.6527   -4.9995    1.9978 H         1 <0>         0.1423
     28 H8          1.5160   -5.8962    1.2521 H         1 <0>         0.1427
     29 H9          2.8867   -1.9310    0.4762 H         1 <0>         0.1391
     30 H10         1.5906   -0.2514    3.6957 H         1 <0>         0.0416
     31 H11         0.0253   -0.4052    4.5288 H         1 <0>         0.0847
     32 H12         0.6898   -1.7848    3.6215 H         1 <0>         0.0816
     33 H13         0.6070    1.7186    2.7670 H         1 <0>         0.0669
     34 H14        -0.6356    1.5654    1.5018 H         1 <0>         0.0827
     35 H15        -3.0070    1.3698    2.1017 H         1 <0>         0.1314
     36 H16        -0.0870    1.7757    5.2561 H         1 <0>         0.1920
     37 H17        -1.9947   -0.6712   -0.7900 H         1 <0>         0.4342
     38 H18        -1.3117   -1.9191    0.0413 H         1 <0>         0.4299
     39 H19        -1.9618   -0.6437    0.8571 H         1 <0>         0.4390
@<TRIPOS>BOND
     1    1    2 1
     2    1   23 1
     3    1   24 1
     4    1   25 1
     5    2    3 1
     6    2    4 1
     7    2   22 1
     8    4    5 1
     9    4    6 1
    10    4   13 1
    11    6   11 ar
    12    6    7 ar
    13    7    8 ar
    14    7   26 1
    15    8    9 ar
    16    8   27 1
    17    9   10 ar
    18    9   28 1
    19   10   11 ar
    20   10   12 1
    21   11   29 1
    22   13   14 1
    23   13   15 1
    24   14   30 1
    25   14   31 1
    26   14   32 1
    27   15   16 1
    28   15   33 1
    29   15   34 1
    30   16   20 2
    31   16   17 1
    32   17   18 2
    33   17   35 1
    34   18   19 1
    35   18   21 1
    36   19   20 1
    37   20   36 1
    38   22   37 1
    39   22   38 1
    40   22   39 1
@<TRIPOS>MOLECULE
ZINC43286449
   39    40     0     0     0
SMALL
USER_CHARGES

@<TRIPOS>ATOM
      1 C1         -1.0634   -0.6403   -0.6664 C.3       1 <0>        -0.1853
      2 C2          0.2858    0.0120   -0.3582 C.3       1 <0>         0.0347
      3 H1          0.1828    1.0964   -0.3984 H         1 <0>         0.1538
      4 C3          0.7464   -0.4051    1.0399 C.3       1 <0>         0.1509
      5 H2          0.0149   -0.0743    1.7772 H         1 <0>         0.1132
      6 C4          0.8765   -1.9053    1.0993 C.2       1 <0>        -0.2033
      7 C5          0.0116   -2.8176    1.6064 C.2       1 <0>        -0.0867
      8 C6          0.3436   -4.1587    1.5519 C.2       1 <0>        -0.1376
      9 C7          1.5244   -4.5212    0.9926 C.2       1 <0>        -0.1034
     10 S1          2.2060   -2.9424    0.5129 S.3       1 <0>         0.0840
     11 Br1        -0.8311   -5.4674    2.2472 Br        1 <0>        -0.0058
     12 N1          2.0478    0.2111    1.3308 N.3       1 <0>        -0.5468
     13 C8          2.5749   -0.2557    2.6201 C.3       1 <0>         0.0130
     14 C9          1.9550    1.6769    1.2997 C.3       1 <0>         0.0782
     15 C10         3.3393    2.2661    1.2117 C.ar      1 <0>        -0.0771
     16 C11         4.0397    2.5604    2.3666 C.ar      1 <0>        -0.1014
     17 C12         5.3094    3.1004    2.2864 C.ar      1 <0>        -0.0832
     18 C13         5.8794    3.3464    1.0503 C.ar      1 <0>        -0.0827
     19 C14         5.1782    3.0517   -0.1051 C.ar      1 <0>        -0.0874
     20 C15         3.9105    2.5068   -0.0239 C.ar      1 <0>        -0.1032
     21 Br2         7.6164    4.0857    0.9399 Br        1 <0>        -0.0332
     22 N2          1.2779   -0.4227   -1.3506 N.4       1 <0>        -0.6341
     23 H3         -1.7712   -0.4039    0.1282 H         1 <0>         0.1093
     24 H4         -1.4423   -0.2605   -1.6153 H         1 <0>         0.0922
     25 H5         -0.9381   -1.7211   -0.7316 H         1 <0>         0.0845
     26 H6         -0.9225   -2.5016    2.0468 H         1 <0>         0.1510
     27 H7          1.9421   -5.5091    0.8660 H         1 <0>         0.2065
     28 H8          2.6994   -1.3382    2.5913 H         1 <0>         0.0809
     29 H9          3.5389    0.2160    2.8108 H         1 <0>         0.0889
     30 H10         1.8775    0.0088    3.4150 H         1 <0>         0.0443
     31 H11         1.3728    1.9857    0.4315 H         1 <0>         0.0857
     32 H12         1.4671    2.0294    2.2084 H         1 <0>         0.0698
     33 H13         3.5944    2.3687    3.3317 H         1 <0>         0.1320
     34 H14         5.8564    3.3306    3.1888 H         1 <0>         0.1382
     35 H15         5.6228    3.2435   -1.0704 H         1 <0>         0.1369
     36 H16         3.3646    2.2729   -0.9260 H         1 <0>         0.1221
     37 H17         0.9741   -0.1477   -2.2726 H         1 <0>         0.4361
     38 H18         2.1677    0.0074   -1.1474 H         1 <0>         0.4398
     39 H19         1.3733   -1.4265   -1.3134 H         1 <0>         0.4251
@<TRIPOS>BOND
     1    1    2 1
     2    1   23 1
     3    1   24 1
     4    1   25 1
     5    2    3 1
     6    2    4 1
     7    2   22 1
     8    4    5 1
     9    4    6 1
    10    4   12 1
    11    6   10 1
    12    6    7 2
    13    7    8 1
    14    7   26 1
    15    8    9 2
    16    8   11 1
    17    9   10 1
    18    9   27 1
    19   12   13 1
    20   12   14 1
    21   13   28 1
    22   13   29 1
    23   13   30 1
    24   14   15 1
    25   14   31 1
    26   14   32 1
    27   15   20 ar
    28   15   16 ar
    29   16   17 ar
    30   16   33 1
    31   17   18 ar
    32   17   34 1
    33   18   19 ar
    34   18   21 1
    35   19   20 ar
    36   19   35 1
    37   20   36 1
    38   22   37 1
    39   22   38 1
    40   22   39 1
@<TRIPOS>MOLECULE
ZINC50362500
   36    37     0     0     0
SMALL
USER_CHARGES

@<TRIPOS>ATOM
      1 C1          0.0615   -2.8119   -2.5243 C.3       1 <0>        -0.1236
      2 C2          0.0410   -2.0710   -1.2122 C.ar      1 <0>        -0.0332
      3 C3          0.0076   -0.6883   -1.2001 C.ar      1 <0>        -0.1535
      4 C4         -0.0109   -0.0046    0.0015 C.ar      1 <0>        -0.0640
      5 C5          0.0035   -0.7009    1.1944 C.ar      1 <0>        -0.1803
      6 C6          0.0366   -2.0893    1.1859 C.ar      1 <0>         0.1845
      7 C7          0.0498   -2.7733   -0.0234 C.ar      1 <0>        -0.2011
      8 N1          0.0513   -2.7965    2.3902 N.pl3     1 <0>        -0.6442
      9 C8          0.1579   -2.0762    3.6614 C.3       1 <0>         0.0742
     10 C9         -0.0400   -4.2587    2.3823 C.3       1 <0>         0.2199
     11 H1         -0.0231   -4.6182    1.3534 H         1 <0>         0.1457
     12 C10         1.1464   -4.8479    3.1480 C.3       1 <0>        -0.0243
     13 N2          2.3999   -4.3361    2.5780 N.4       1 <0>        -0.6321
     14 C11        -1.3258   -4.6853    3.0424 C.2       1 <0>        -0.0311
     15 C12        -2.1233   -5.6889    2.6353 C.2       1 <0>        -0.1405
     16 C13        -3.2112   -5.7401    3.5377 C.2       1 <0>        -0.1444
     17 C14        -3.0126   -4.7633    4.4432 C.2       1 <0>         0.0256
     18 O1         -1.8663   -4.1314    4.1406 O.3       1 <0>        -0.1380
     19 Br1        -4.1505   -4.3548    5.8973 Br        1 <0>         0.0967
     20 Br2        -4.6654   -6.9477    3.4828 Br        1 <0>         0.0311
     21 H2         -0.9610   -3.0110   -2.8451 H         1 <0>         0.0783
     22 H3          0.5665   -2.2054   -3.2761 H         1 <0>         0.0742
     23 H4          0.5937   -3.7550   -2.4007 H         1 <0>         0.0666
     24 H5         -0.0038   -0.1415   -2.1313 H         1 <0>         0.1275
     25 H6         -0.0362    1.0751    0.0075 H         1 <0>         0.1304
     26 H7         -0.0105   -0.1662    2.1326 H         1 <0>         0.1272
     27 H8          0.0714   -3.8531   -0.0335 H         1 <0>         0.1187
     28 H9         -0.8401   -1.8338    4.0266 H         1 <0>         0.0674
     29 H10         0.6700   -2.7023    4.3921 H         1 <0>         0.0667
     30 H11         0.7232   -1.1564    3.5115 H         1 <0>         0.0866
     31 H12         1.0804   -4.5605    4.1974 H         1 <0>         0.1433
     32 H13         1.1275   -5.9347    3.0670 H         1 <0>         0.1562
     33 H14         3.1823   -4.7247    3.0830 H         1 <0>         0.4432
     34 H15         2.4610   -4.6021    1.6067 H         1 <0>         0.4370
     35 H16        -1.9639   -6.3320    1.7824 H         1 <0>         0.1727
     36 H17         2.4174   -3.3301    2.6530 H         1 <0>         0.4368
@<TRIPOS>BOND
     1    1    2 1
     2    1   21 1
     3    1   22 1
     4    1   23 1
     5    2    7 ar
     6    2    3 ar
     7    3    4 ar
     8    3   24 1
     9    4    5 ar
    10    4   25 1
    11    5    6 ar
    12    5   26 1
    13    6    7 ar
    14    6    8 1
    15    7   27 1
    16    8    9 1
    17    8   10 1
    18    9   28 1
    19    9   29 1
    20    9   30 1
    21   10   11 1
    22   10   12 1
    23   10   14 1
    24   12   13 1
    25   12   31 1
    26   12   32 1
    27   13   33 1
    28   13   34 1
    29   13   36 1
    30   14   18 1
    31   14   15 2
    32   15   16 1
    33   15   35 1
    34   16   17 2
    35   16   20 1
    36   17   18 1
    37   17   19 1
@<TRIPOS>MOLECULE
ZINC00186993
   34    36     0     0     0
SMALL
USER_CHARGES
1-(4-chlorophenyl)-5-[(5-methyl-2-furyl)methylene]-2-thioxo-hexahydropyrimidine-4,6-dione
@<TRIPOS>ATOM
      1 C1          1.5552    4.6616   -1.6219 C.3       1 <0>        -0.0873
      2 C2          0.7275    3.5053   -1.1232 C.2       1 <0>         0.0625
      3 C3         -0.4569    3.6096   -0.4736 C.2       1 <0>        -0.2344
      4 C4         -0.8931    2.3103   -0.1935 C.2       1 <0>        -0.0997
      5 C5          0.0771    1.4537   -0.6913 C.2       1 <0>        -0.0732
      6 O1          1.0447    2.2112   -1.2521 O.3       1 <0>        -0.1268
      7 C6          0.0548    0.0508   -0.6290 C.2       1 <0>         0.1711
      8 C7          1.2357   -0.6549   -0.4301 C.2       1 <0>        -0.2965
      9 C8          2.4924    0.0314   -0.0819 C.2       1 <0>         0.5522
     10 O2          2.5302    1.2415    0.0407 O.2       1 <0>        -0.4500
     11 N1          3.5998   -0.7178    0.0968 N.am      1 <0>        -0.6142
     12 C9          3.5720   -2.0514   -0.0352 C.2       1 <0>         0.5316
     13 S1          5.0261   -2.9209    0.2109 S.2       1 <0>        -0.4845
     14 N2          2.4661   -2.7403   -0.3500 N.am      1 <0>        -0.4724
     15 C10         1.2842   -2.1223   -0.5521 C.2       1 <0>         0.5619
     16 O3          0.2859   -2.7593   -0.8323 O.2       1 <0>        -0.4537
     17 C11         2.5379   -4.1350   -0.4653 C.ar      1 <0>         0.1147
     18 C12         3.2041   -4.7107   -1.5389 C.ar      1 <0>        -0.0555
     19 C13         3.2784   -6.0855   -1.6471 C.ar      1 <0>        -0.0995
     20 C14         2.6796   -6.8892   -0.6929 C.ar      1 <0>        -0.0133
     21 C15         2.0101   -6.3179    0.3750 C.ar      1 <0>        -0.1007
     22 C16         1.9380   -4.9436    0.4908 C.ar      1 <0>        -0.0703
     23 Cl1         2.7691   -8.6171   -0.8353 Cl        1 <0>        -0.0569
     24 H1          2.4556    4.2821   -2.1052 H         1 <0>         0.0819
     25 H2          0.9746    5.2413   -2.3394 H         1 <0>         0.0949
     26 H3          1.8343    5.2976   -0.7819 H         1 <0>         0.0969
     27 H4         -0.9710    4.5257   -0.2226 H         1 <0>         0.1608
     28 H5         -1.8050    2.0297    0.3126 H         1 <0>         0.1649
     29 H6         -0.8799   -0.4797   -0.7356 H         1 <0>         0.1834
     30 H7          4.4352   -0.2816    0.3264 H         1 <0>         0.4484
     31 H8          3.6674   -4.0838   -2.2864 H         1 <0>         0.1372
     32 H9          3.8003   -6.5338   -2.4796 H         1 <0>         0.1457
     33 H10         1.5440   -6.9472    1.1187 H         1 <0>         0.1453
     34 H11         1.4156   -4.4982    1.3246 H         1 <0>         0.1354
@<TRIPOS>BOND
     1    1    2 1
     2    1   24 1
     3    1   25 1
     4    1   26 1
     5    2    6 1
     6    2    3 2
     7    3    4 1
     8    3   27 1
     9    4    5 2
    10    4   28 1
    11    5    6 1
    12    5    7 1
    13    7    8 2
    14    7   29 1
    15    8   15 1
    16    8    9 1
    17    9   10 2
    18    9   11 am
    19   11   12 1
    20   11   30 1
    21   12   13 2
    22   12   14 1
    23   14   15 am
    24   14   17 1
    25   15   16 2
    26   17   22 ar
    27   17   18 ar
    28   18   19 ar
    29   18   31 1
    30   19   20 ar
    31   19   32 1
    32   20   21 ar
    33   20   23 1
    34   21   22 ar
    35   21   33 1
    36   22   34 1
@<TRIPOS>MOLECULE
ZINC05937905
   37    40     0     0     0
SMALL
USER_CHARGES

@<TRIPOS>ATOM
      1 C1         -0.0187    1.5258    0.0104 C.3       1 <0>        -0.1385
      2 C2          0.0021   -0.0041    0.0020 C.3       1 <0>         0.1808
      3 C3         -1.4054   -0.6221    0.0231 C.3       1 <0>        -0.1102
      4 C4         -1.6165   -0.8239    1.5430 C.3       1 <0>        -0.1393
      5 C5         -0.2182   -0.9590    2.0979 C.2       1 <0>         0.5411
      6 O1          0.0455   -1.3465    3.2165 O.2       1 <0>        -0.4747
      7 N1          0.7028   -0.5871    1.1729 N.am      1 <0>        -0.6205
      8 C6          2.1574   -0.6368    0.9848 C.3       1 <0>         0.1464
      9 H1          2.5859    0.3012    1.3376 H         1 <0>         0.1161
     10 C7          2.5920   -0.8565   -0.4796 C.3       1 <0>        -0.0837
     11 S1          0.9924   -0.7029   -1.3797 S.3       1 <0>        -0.2490
     12 C8          2.7121   -1.7612    1.8209 C.2       1 <0>         0.4914
     13 O2          1.9671   -2.4399    2.4954 O.2       1 <0>        -0.4123
     14 N2          4.0363   -2.0126    1.8189 N.am      1 <0>        -0.6187
     15 C9          4.5462   -3.0463    2.5876 C.2       1 <0>         0.3723
     16 N3          3.9061   -3.8844    3.3690 N.2       1 <0>        -0.5029
     17 C10         4.5374   -4.8536    4.0662 C.ar      1 <0>         0.1012
     18 C11         3.9708   -5.8135    4.9366 C.ar      1 <0>        -0.0637
     19 C12         4.7610   -6.7351    5.5721 C.ar      1 <0>        -0.1056
     20 C13         6.1359   -6.7620    5.3871 C.ar      1 <0>        -0.0994
     21 C14         6.7237   -5.8385    4.5425 C.ar      1 <0>        -0.0627
     22 C15         5.9402   -4.9112    3.9020 C.ar      1 <0>        -0.1476
     23 S2          6.2422   -3.5829    2.7613 S.3       1 <0>         0.0044
     24 H2          1.0039    1.9031    0.0027 H         1 <0>         0.0689
     25 H3         -0.5459    1.8868   -0.8726 H         1 <0>         0.0863
     26 H4         -0.5289    1.8773    0.9072 H         1 <0>         0.0753
     27 H5         -2.1432    0.0671   -0.3877 H         1 <0>         0.1029
     28 H6         -1.4238   -1.5751   -0.5058 H         1 <0>         0.0992
     29 H7         -2.1168    0.0419    1.9767 H         1 <0>         0.1126
     30 H8         -2.1906   -1.7311    1.7311 H         1 <0>         0.1146
     31 H9          3.2933   -0.0851   -0.7976 H         1 <0>         0.1253
     32 H10         3.0206   -1.8497   -0.6138 H         1 <0>         0.1158
     33 H11         4.6322   -1.4698    1.2794 H         1 <0>         0.4283
     34 H12         2.9037   -5.8199    5.1025 H         1 <0>         0.1344
     35 H13         4.3032   -7.4568    6.2323 H         1 <0>         0.1360
     36 H14         6.7407   -7.4967    5.8978 H         1 <0>         0.1405
     37 H15         7.7925   -5.8466    4.3878 H         1 <0>         0.1348
@<TRIPOS>BOND
     1    1    2 1
     2    1   24 1
     3    1   25 1
     4    1   26 1
     5    2    7 1
     6    2   11 1
     7    2    3 1
     8    3    4 1
     9    3   27 1
    10    3   28 1
    11    4    5 1
    12    4   29 1
    13    4   30 1
    14    5    6 2
    15    5    7 am
    16    7    8 1
    17    8    9 1
    18    8   10 1
    19    8   12 1
    20   10   11 1
    21   10   31 1
    22   10   32 1
    23   12   13 2
    24   12   14 am
    25   14   15 1
    26   14   33 1
    27   15   23 1
    28   15   16 2
    29   16   17 1
    30   17   22 ar
    31   17   18 ar
    32   18   19 ar
    33   18   34 1
    34   19   20 ar
    35   19   35 1
    36   20   21 ar
    37   20   36 1
    38   21   22 ar
    39   21   37 1
    40   22   23 1
@<TRIPOS>MOLECULE
ZINC39458964
   36    38     0     0     0
SMALL
USER_CHARGES

@<TRIPOS>ATOM
      1 C1         -0.0187    1.5258    0.0104 C.3       1 <0>        -0.1440
      2 C2          0.0021   -0.0041    0.0020 C.3       1 <0>         0.0191
      3 O1         -1.3386   -0.4987    0.0122 O.3       1 <0>        -0.1118
      4 N1         -1.4312   -1.9116    0.0055 N.pl3     1 <0>        -0.2772
      5 C3         -1.4881   -2.7040   -1.1069 C.2       1 <0>         0.0272
      6 C4         -1.5852   -3.9997   -0.7101 C.2       1 <0>         0.0457
      7 C5         -1.5852   -4.0156    0.6873 C.2       1 <0>        -0.1430
      8 C6         -1.4728   -2.7136    1.1076 C.2       1 <0>         0.0527
      9 C7         -1.3955   -2.3451    2.5322 C.ar      1 <0>         0.2355
     10 C8         -0.5271   -3.1168    3.3446 C.ar      1 <0>        -0.1608
     11 C9         -0.4533   -2.8363    4.7112 C.ar      1 <0>        -0.0175
     12 C10        -1.2228   -1.7913    5.2008 C.ar      1 <0>        -0.1419
     13 C11        -2.0282   -1.0666    4.3384 C.ar      1 <0>         0.1263
     14 N2         -2.0965   -1.3527    3.0515 N.ar      1 <0>        -0.4481
     15 Br1         0.6593   -3.8491    5.8567 Br        1 <0>        -0.0076
     16 C12         0.2779   -4.1602    2.7156 C.2       1 <0>         0.4095
     17 O2          1.4623   -3.9691    2.5348 O.2       1 <0>        -0.4266
     18 C13        -0.3343   -5.4739    2.2857 C.3       1 <0>        -0.1539
     19 C14        -1.6922   -5.2003    1.6066 C.3       1 <0>        -0.0450
     20 O3         -1.6679   -5.0867   -1.5267 O.3       1 <0>        -0.4632
     21 C15        -1.4497   -2.2213   -2.5340 C.3       1 <0>        -0.0867
     22 H1          1.0039    1.9031    0.0027 H         1 <0>         0.0868
     23 H2         -0.5459    1.8868   -0.8726 H         1 <0>         0.0718
     24 H3         -0.5289    1.8773    0.9072 H         1 <0>         0.0705
     25 H4          0.5123   -0.3556   -0.8948 H         1 <0>         0.0688
     26 H5          0.5293   -0.3651    0.8851 H         1 <0>         0.0625
     27 H6         -1.1941   -1.5438    6.2517 H         1 <0>         0.1572
     28 H7         -2.6146   -0.2476    4.7280 H         1 <0>         0.1764
     29 H8          0.3324   -5.9738    1.5830 H         1 <0>         0.1044
     30 H9         -0.4868   -6.1080    3.1590 H         1 <0>         0.1116
     31 H10        -2.4476   -4.9992    2.3662 H         1 <0>         0.0798
     32 H11        -1.9868   -6.0774    1.0304 H         1 <0>         0.0979
     33 H12        -0.8109   -5.4671   -1.7633 H         1 <0>         0.3838
     34 H13        -0.4156   -2.1812   -2.8763 H         1 <0>         0.0745
     35 H14        -2.0149   -2.9074   -3.1649 H         1 <0>         0.0918
     36 H15        -1.8909   -1.2264   -2.5930 H         1 <0>         0.0735
@<TRIPOS>BOND
     1    1    2 1
     2    1   22 1
     3    1   23 1
     4    1   24 1
     5    2    3 1
     6    2   25 1
     7    2   26 1
     8    3    4 1
     9    4    8 1
    10    4    5 1
    11    5    6 2
    12    5   21 1
    13    6    7 1
    14    6   20 1
    15    7   19 1
    16    7    8 2
    17    8    9 1
    18    9   14 ar
    19    9   10 ar
    20   10   11 ar
    21   10   16 1
    22   11   12 ar
    23   11   15 1
    24   12   13 ar
    25   12   27 1
    26   13   14 ar
    27   13   28 1
    28   16   17 2
    29   16   18 1
    30   18   19 1
    31   18   29 1
    32   18   30 1
    33   19   31 1
    34   19   32 1
    35   20   33 1
    36   21   34 1
    37   21   35 1
    38   21   36 1
@<TRIPOS>MOLECULE
ZINC51362532
   29    31     0     0     0
SMALL
USER_CHARGES

@<TRIPOS>ATOM
      1 C1         -0.0178    1.4608    0.0101 C.3       1 <0>         0.0953
      2 N1          0.0021   -0.0041    0.0020 N.am      1 <0>        -0.5491
      3 C2         -1.1112   -0.8440    0.0025 C.ar      1 <0>         0.0791
      4 C3         -2.4779   -0.6127    0.0104 C.ar      1 <0>        -0.0943
      5 C4         -3.3552   -1.6796    0.0091 C.ar      1 <0>        -0.0801
      6 C5         -2.8732   -2.9770    0.0003 C.ar      1 <0>        -0.1168
      7 C6         -1.5127   -3.2151   -0.0076 C.ar      1 <0>        -0.0569
      8 C7         -0.6245   -2.1509   -0.0068 C.ar      1 <0>         0.0381
      9 O1          0.7290   -2.0764   -0.0126 O.3       1 <0>        -0.2330
     10 C8          1.0996   -0.7862   -0.0131 C.2       1 <0>         0.6356
     11 O2          2.2475   -0.3853   -0.0225 O.2       1 <0>        -0.4806
     12 C9         -3.8373   -4.1352   -0.0002 C.3       1 <0>         0.2449
     13 H1         -3.3294   -5.0306   -0.3587 H         1 <0>         0.1453
     14 C10        -4.3408   -4.3702    1.4006 C.2       1 <0>        -0.0254
     15 C11        -3.8298   -5.2470    2.2833 C.2       1 <0>        -0.1881
     16 C12        -4.6021   -5.1385    3.4627 C.2       1 <0>        -0.1515
     17 C13        -5.5396   -4.2010    3.2300 C.2       1 <0>        -0.0272
     18 O3         -5.3726   -3.7352    1.9813 O.3       1 <0>        -0.1555
     19 Br1        -6.8623   -3.6312    4.4554 Br        1 <0>         0.0569
     20 O4         -4.9398   -3.8369   -0.8589 O.3       1 <0>        -0.5362
     21 H2          1.0048    1.8381    0.0023 H         1 <0>         0.1000
     22 H3         -0.5450    1.8219   -0.8730 H         1 <0>         0.0812
     23 H4         -0.5280    1.8123    0.9069 H         1 <0>         0.0810
     24 H5         -2.8558    0.3990    0.0180 H         1 <0>         0.1411
     25 H6         -4.4203   -1.5009    0.0152 H         1 <0>         0.1396
     26 H7         -1.1413   -4.2292   -0.0145 H         1 <0>         0.1481
     27 H8         -2.9908   -5.9076    2.1219 H         1 <0>         0.1618
     28 H9         -4.4662   -5.7004    4.3750 H         1 <0>         0.1628
     29 H10        -5.4389   -3.0504   -0.5994 H         1 <0>         0.3839
@<TRIPOS>BOND
     1    1    2 1
     2    1   21 1
     3    1   22 1
     4    1   23 1
     5    2   10 am
     6    2    3 1
     7    3    8 ar
     8    3    4 ar
     9    4    5 ar
    10    4   24 1
    11    5    6 ar
    12    5   25 1
    13    6    7 ar
    14    6   12 1
    15    7    8 ar
    16    7   26 1
    17    8    9 1
    18    9   10 1
    19   10   11 2
    20   12   13 1
    21   12   14 1
    22   12   20 1
    23   14   18 1
    24   14   15 2
    25   15   16 1
    26   15   27 1
    27   16   17 2
    28   16   28 1
    29   17   18 1
    30   17   19 1
    31   20   29 1
@<TRIPOS>MOLECULE
ZINC13122368
   33    35     0     0     0
SMALL
USER_CHARGES

@<TRIPOS>ATOM
      1 C1         -0.0184    1.5028    0.0103 C.3       1 <0>        -0.1160
      2 C2          0.0021   -0.0041    0.0020 C.2       1 <0>         0.2669
      3 C3         -1.1685   -0.6714    0.0040 C.2       1 <0>        -0.3395
      4 C4         -1.2555   -2.1745    0.0076 C.3       1 <0>         0.2731
      5 H1         -1.9660   -2.4994   -0.7525 H         1 <0>         0.1139
      6 N1          0.0602   -2.7376   -0.2832 N.pl3     1 <0>        -0.3852
      7 C5          1.2052   -2.0109   -0.2807 C.2       1 <0>         0.4881
      8 N2          2.1921   -2.8137   -0.5711 N.2       1 <0>        -0.5437
      9 C6          1.7208   -4.0490   -0.7684 C.2       1 <0>         0.2195
     10 N3          0.4209   -4.0455   -0.6030 N.2       1 <0>        -0.2916
     11 N4          1.2095   -0.6496   -0.0130 N.pl3     1 <0>        -0.6047
     12 C7         -1.7168   -2.6480    1.3619 C.ar      1 <0>        -0.0878
     13 C8         -0.9735   -2.3491    2.4885 C.ar      1 <0>        -0.0869
     14 C9         -1.3965   -2.7828    3.7309 C.ar      1 <0>        -0.0889
     15 C10        -2.5637   -3.5160    3.8468 C.ar      1 <0>        -0.0804
     16 C11        -3.3071   -3.8148    2.7192 C.ar      1 <0>        -0.0880
     17 C12        -2.8861   -3.3762    1.4779 C.ar      1 <0>        -0.0889
     18 Br1        -3.1426   -4.1101    5.5462 Br        1 <0>        -0.0428
     19 C13        -2.3605    0.0680    0.0032 C.2       1 <0>         0.4071
     20 O1         -2.3221    1.2827    0.0007 O.2       1 <0>        -0.4756
     21 C14        -3.6888   -0.6439    0.0054 C.3       1 <0>        -0.2019
     22 H2          1.0042    1.8801    0.0026 H         1 <0>         0.0671
     23 H3         -0.5455    1.8639   -0.8728 H         1 <0>         0.1121
     24 H4         -0.5286    1.8543    0.9071 H         1 <0>         0.1095
     25 H5          2.3168   -4.9127   -1.0236 H         1 <0>         0.2278
     26 H6          2.0370   -0.1741    0.1603 H         1 <0>         0.4418
     27 H7         -0.0620   -1.7769    2.3979 H         1 <0>         0.1197
     28 H8         -0.8156   -2.5495    4.6110 H         1 <0>         0.1351
     29 H9         -4.2185   -4.3872    2.8093 H         1 <0>         0.1393
     30 H10        -3.4686   -3.6060    0.5980 H         1 <0>         0.1378
     31 H11        -4.0084   -0.8134    1.0336 H         1 <0>         0.0962
     32 H12        -4.4297   -0.0321   -0.5092 H         1 <0>         0.0886
     33 H13        -3.5889   -1.6010   -0.5065 H         1 <0>         0.0785
@<TRIPOS>BOND
     1    1    2 1
     2    1   22 1
     3    1   23 1
     4    1   24 1
     5    2   11 1
     6    2    3 2
     7    3    4 1
     8    3   19 1
     9    4    5 1
    10    4    6 1
    11    4   12 1
    12    6   10 1
    13    6    7 1
    14    7    8 2
    15    7   11 1
    16    8    9 1
    17    9   10 2
    18    9   25 1
    19   11   26 1
    20   12   17 ar
    21   12   13 ar
    22   13   14 ar
    23   13   27 1
    24   14   15 ar
    25   14   28 1
    26   15   16 ar
    27   15   18 1
    28   16   17 ar
    29   16   29 1
    30   17   30 1
    31   19   20 2
    32   19   21 1
    33   21   31 1
    34   21   32 1
    35   21   33 1
@<TRIPOS>MOLECULE
ZINC03029896
   28    30     0     0     0
SMALL
USER_CHARGES
5-[[5-(4-iodophenyl)-2-furyl]methylene]thiazolidine-2,4-dione
@<TRIPOS>ATOM
      1 C1          0.0145    0.9504   -1.0301 C.ar      1 <0>        -0.0848
      2 C2         -1.1797    1.5920   -1.2831 C.ar      1 <0>        -0.0850
      3 C3         -1.2081    2.9654   -1.4562 C.ar      1 <0>        -0.0899
      4 C4         -0.0382    3.7026   -1.3872 C.ar      1 <0>        -0.0845
      5 C5          1.1637    3.0731   -1.1406 C.ar      1 <0>        -0.0870
      6 C6          1.1990    1.6881   -0.9597 C.ar      1 <0>        -0.0127
      7 C7          2.4813    1.0076   -0.6950 C.2       1 <0>         0.0675
      8 C8          3.7013    1.6164   -0.6032 C.2       1 <0>        -0.2032
      9 C9          4.6422    0.6165   -0.3446 C.2       1 <0>        -0.1227
     10 C10         3.9480   -0.5792   -0.2884 C.2       1 <0>        -0.0390
     11 O1          2.6414   -0.3136   -0.4984 O.3       1 <0>        -0.1024
     12 C11         4.5073   -1.8525   -0.0475 C.2       1 <0>         0.1129
     13 C12         3.6964   -2.9452    0.0578 C.2       1 <0>        -0.2295
     14 C13         2.2707   -3.0182    0.0967 C.2       1 <0>         0.5462
     15 O2          1.5892   -2.0109    0.0327 O.2       1 <0>        -0.4491
     16 N1          1.7131   -4.2119    0.2006 N.am      1 <0>        -0.6860
     17 C14         2.4699   -5.3289    0.2784 C.2       1 <0>         0.5544
     18 O3          2.1116   -6.4869    0.3811 O.2       1 <0>        -0.4134
     19 S1          4.1298   -4.6742    0.1924 S.3       1 <0>        -0.0438
     20 I1         -3.0287    3.9315   -1.8320 I         1 <0>        -0.0341
     21 H1          0.0347   -0.1205   -0.8912 H         1 <0>         0.1442
     22 H2         -2.0953    1.0224   -1.3426 H         1 <0>         0.1354
     23 H3         -0.0670    4.7731   -1.5272 H         1 <0>         0.1380
     24 H4          2.0756    3.6493   -1.0878 H         1 <0>         0.1394
     25 H5          3.9007    2.6724   -0.7101 H         1 <0>         0.1602
     26 H6          5.7057    0.7509   -0.2137 H         1 <0>         0.1657
     27 H7          5.5770   -1.9621    0.0535 H         1 <0>         0.1816
     28 H8          0.7463   -4.2871    0.2258 H         1 <0>         0.4217
@<TRIPOS>BOND
     1    1    6 ar
     2    1    2 ar
     3    1   21 1
     4    2    3 ar
     5    2   22 1
     6    3    4 ar
     7    3   20 1
     8    4    5 ar
     9    4   23 1
    10    5    6 ar
    11    5   24 1
    12    6    7 1
    13    7   11 1
    14    7    8 2
    15    8    9 1
    16    8   25 1
    17    9   10 2
    18    9   26 1
    19   10   11 1
    20   10   12 1
    21   12   13 2
    22   12   27 1
    23   13   19 1
    24   13   14 1
    25   14   15 2
    26   14   16 am
    27   16   17 am
    28   16   28 1
    29   17   18 2
    30   17   19 1
@<TRIPOS>MOLECULE
ZINC02286922
   33    36     0     0     0
SMALL
USER_CHARGES
(3Z)-3-[3-(2-bromophenyl)-4-oxo-2-thioxo-thiazolidin-5-ylidene]indolin-2-one
@<TRIPOS>ATOM
      1 C1         -2.9027   -1.3275   -5.6616 C.ar      1 <0>        -0.1487
      2 C2         -3.9490   -1.9960   -6.2756 C.ar      1 <0>        -0.0528
      3 C3         -4.8738   -2.6956   -5.5263 C.ar      1 <0>        -0.1441
      4 C4         -4.7630   -2.7359   -4.1412 C.ar      1 <0>         0.1684
      5 C5         -3.7054   -2.0538   -3.5223 C.ar      1 <0>        -0.1423
      6 C6         -2.7749   -1.3557   -4.2878 C.ar      1 <0>        -0.0351
      7 C7         -3.8525   -2.2839   -2.0700 C.2       1 <0>         0.0330
      8 C8         -3.0410   -1.8102   -1.0571 C.2       1 <0>        -0.1530
      9 C9         -1.7399   -1.0929   -1.1404 C.2       1 <0>         0.5480
     10 O1         -1.2187   -0.8317   -2.2068 O.2       1 <0>        -0.4253
     11 N1         -1.1799   -0.7593    0.0104 N.am      1 <0>        -0.4802
     12 C10        -1.7648   -1.0466    1.1904 C.2       1 <0>         0.2515
     13 S1         -1.2013   -0.6928    2.7678 S.2       1 <0>        -0.2707
     14 S2         -3.2679   -1.8844    0.7145 S.3       1 <0>         0.1367
     15 C11         0.0488   -0.0857    0.0028 C.ar      1 <0>         0.1175
     16 C12         1.2365   -0.8045    0.0288 C.ar      1 <0>        -0.0782
     17 C13         2.4460   -0.1379    0.0216 C.ar      1 <0>        -0.0912
     18 C14         2.4755    1.2444   -0.0120 C.ar      1 <0>        -0.0869
     19 C15         1.2951    1.9637   -0.0375 C.ar      1 <0>        -0.0809
     20 C16         0.0813    1.3026   -0.0305 C.ar      1 <0>        -0.0634
     21 Br1        -1.5329    2.2867   -0.0739 Br        1 <0>        -0.0305
     22 C17        -5.0591   -3.1250   -1.9361 C.2       1 <0>         0.5581
     23 O2         -5.5324   -3.5377   -0.8940 O.2       1 <0>        -0.4591
     24 N2         -5.5421   -3.3534   -3.1693 N.am      1 <0>        -0.6486
     25 H1         -2.1858   -0.7838   -6.2588 H         1 <0>         0.1370
     26 H2         -4.0426   -1.9694   -7.3513 H         1 <0>         0.1390
     27 H3         -5.6852   -3.2123   -6.0172 H         1 <0>         0.1365
     28 H4         -1.9597   -0.8345   -3.8081 H         1 <0>         0.1646
     29 H5          1.2144   -1.8840    0.0550 H         1 <0>         0.1370
     30 H6          3.3699   -0.6967    0.0418 H         1 <0>         0.1442
     31 H7          3.4228    1.7631   -0.0182 H         1 <0>         0.1444
     32 H8          1.3215    3.0431   -0.0633 H         1 <0>         0.1462
     33 H9         -6.3333   -3.8821   -3.3574 H         1 <0>         0.4292
@<TRIPOS>BOND
     1    1    6 ar
     2    1    2 ar
     3    1   25 1
     4    2    3 ar
     5    2   26 1
     6    3    4 ar
     7    3   27 1
     8    4   24 1
     9    4    5 ar
    10    5    6 ar
    11    5    7 1
    12    6   28 1
    13    7    8 2
    14    7   22 1
    15    8   14 1
    16    8    9 1
    17    9   10 2
    18    9   11 am
    19   11   12 1
    20   11   15 1
    21   12   13 2
    22   12   14 1
    23   15   20 ar
    24   15   16 ar
    25   16   17 ar
    26   16   29 1
    27   17   18 ar
    28   17   30 1
    29   18   19 ar
    30   18   31 1
    31   19   20 ar
    32   19   32 1
    33   20   21 1
    34   22   23 2
    35   22   24 am
    36   24   33 1
@<TRIPOS>MOLECULE
ZINC05353025
   42    45     0     0     0
SMALL
USER_CHARGES
(2Z)-1-(2,6-dichloro-4-pyridyl)-2-(2,3,4,8,9,10-hexahydro-[1,4]dioxepino[2,3-g]isoquinolin-7-ylidene)ethanone
@<TRIPOS>ATOM
      1 C1          3.8664    2.7335   -8.3109 C.ar      1 <0>        -0.1050
      2 C2          3.1689    2.5224   -7.1181 C.ar      1 <0>        -0.0742
      3 C3          3.0209    1.2090   -6.6632 C.ar      1 <0>        -0.1141
      4 C4          3.5555    0.1761   -7.4104 C.ar      1 <0>         0.1861
      5 N1          4.2073    0.4185   -8.5319 N.ar      1 <0>        -0.4607
      6 C5          4.3743    1.6436   -8.9929 C.ar      1 <0>         0.1871
      7 Cl1         5.2428    1.8897  -10.4757 Cl        1 <0>        -0.0089
      8 Cl2         3.3736   -1.4609   -6.8622 Cl        1 <0>        -0.0098
      9 C6          2.6065    3.6613   -6.3529 C.2       1 <0>         0.4374
     10 O1          2.7497    4.8005   -6.7622 O.2       1 <0>        -0.4836
     11 C7          1.9093    3.4276   -5.1573 C.2       1 <0>        -0.3619
     12 C8          1.3864    4.4866   -4.4457 C.2       1 <0>         0.3327
     13 C9          0.6451    4.2844   -3.1813 C.ar      1 <0>        -0.0862
     14 C10         0.3204    2.9901   -2.7642 C.ar      1 <0>        -0.0740
     15 C11        -0.3626    2.8097   -1.5786 C.ar      1 <0>         0.0594
     16 C12        -0.7205    3.9091   -0.8053 C.ar      1 <0>         0.0936
     17 C13        -0.3976    5.1928   -1.2193 C.ar      1 <0>        -0.1226
     18 C14         0.2798    5.3884   -2.4083 C.ar      1 <0>        -0.0379
     19 C15         0.5979    6.7919   -2.8500 C.3       1 <0>        -0.1085
     20 C16         1.7694    6.8046   -3.8308 C.3       1 <0>         0.1128
     21 N2          1.5283    5.7969   -4.8778 N.pl3     1 <0>        -0.7271
     22 O2         -1.3958    3.7168    0.3637 O.3       1 <0>        -0.3176
     23 C17        -0.6622    3.0830    1.4132 C.3       1 <0>         0.0594
     24 C18        -0.7120    1.5700    1.2684 C.3       1 <0>        -0.1909
     25 C19        -0.0127    1.0858    0.0080 C.3       1 <0>         0.0551
     26 O3         -0.6924    1.5535   -1.1588 O.3       1 <0>        -0.3165
     27 H1          4.0062    3.7335   -8.6943 H         1 <0>         0.1635
     28 H2          2.4925    1.0038   -5.7439 H         1 <0>         0.1617
     29 H3          1.7801    2.3995   -4.7880 H         1 <0>         0.1402
     30 H4          0.6016    2.1381   -3.3654 H         1 <0>         0.1470
     31 H5         -0.6759    6.0412   -0.6116 H         1 <0>         0.1417
     32 H6         -0.2818    7.2286   -3.3454 H         1 <0>         0.0918
     33 H7          0.8649    7.4005   -1.9735 H         1 <0>         0.0950
     34 H8          1.8543    7.8016   -4.2877 H         1 <0>         0.0955
     35 H9          2.6996    6.5669   -3.2940 H         1 <0>         0.0689
     36 H10         1.4702    6.1029   -5.9328 H         1 <0>         0.4488
     37 H11         0.3878    3.4087    1.3751 H         1 <0>         0.0605
     38 H12        -1.0973    3.3610    2.3845 H         1 <0>         0.1100
     39 H13        -0.2173    1.1025    2.1325 H         1 <0>         0.0952
     40 H14        -1.7604    1.2402    1.2235 H         1 <0>         0.0875
     41 H15         1.0200    1.4643   -0.0068 H         1 <0>         0.0593
     42 H16        -0.0003   -0.0141   -0.0050 H         1 <0>         0.1094
@<TRIPOS>BOND
     1    1    6 ar
     2    1    2 ar
     3    1   27 1
     4    2    3 ar
     5    2    9 1
     6    3    4 ar
     7    3   28 1
     8    4    5 ar
     9    4    8 1
    10    5    6 ar
    11    6    7 1
    12    9   10 2
    13    9   11 1
    14   11   12 2
    15   11   29 1
    16   12   21 1
    17   12   13 1
    18   13   18 ar
    19   13   14 ar
    20   14   15 ar
    21   14   30 1
    22   15   26 1
    23   15   16 ar
    24   16   17 ar
    25   16   22 1
    26   17   18 ar
    27   17   31 1
    28   18   19 1
    29   19   20 1
    30   19   32 1
    31   19   33 1
    32   20   21 1
    33   20   34 1
    34   20   35 1
    35   21   36 1
    36   22   23 1
    37   23   24 1
    38   23   37 1
    39   23   38 1
    40   24   25 1
    41   24   39 1
    42   24   40 1
    43   25   26 1
    44   25   41 1
    45   25   42 1
@<TRIPOS>MOLECULE
ZINC39464725
   32    34     0     0     0
SMALL
USER_CHARGES

@<TRIPOS>ATOM
      1 C1         -0.0173    1.4248    0.0099 C.3       1 <0>         0.0901
      2 O1          0.0021   -0.0041    0.0020 O.3       1 <0>        -0.7589
      3 P1          0.6778   -0.8654   -1.1785 P.3       1 <0>         2.4541
      4 O2          2.0308   -0.3463   -1.4790 O.2       1 <0>        -1.0232
      5 N1         -0.2690   -0.8192   -2.5332 N.pl3     1 <0>        -1.0294
      6 N2         -1.3625   -1.6562   -2.5500 N.3       1 <0>        -0.2781
      7 C2         -2.0832   -1.5097   -3.8238 C.3       1 <0>         0.0338
      8 C3         -3.4513   -2.1791   -3.6954 C.3       1 <0>        -0.0781
      9 C4         -3.2810   -3.5862   -3.1824 C.ar      1 <0>        -0.0361
     10 C5         -4.3194   -4.4869   -3.3616 C.ar      1 <0>        -0.1016
     11 C6         -4.2029   -5.7855   -2.9048 C.ar      1 <0>        -0.0011
     12 C7         -3.0425   -6.1868   -2.2654 C.ar      1 <0>        -0.1007
     13 C8         -2.0090   -5.2894   -2.0882 C.ar      1 <0>        -0.0682
     14 C9         -2.1252   -3.9843   -2.5462 C.ar      1 <0>        -0.0665
     15 C10        -0.9667   -3.0470   -2.3296 C.3       1 <0>         0.0268
     16 H1         -0.1743   -3.3010   -3.0336 H         1 <0>         0.0873
     17 C11        -0.4207   -3.2461   -0.9125 C.3       1 <0>         0.0981
     18 O3          0.7590   -2.4333   -0.7543 O.3       1 <0>        -0.6966
     19 I1         -2.8557   -8.1532   -1.5672 I         1 <0>        -0.0055
     20 Cl1        -5.5066   -6.9093   -3.1312 Cl        1 <0>        -0.0382
     21 H2          1.0053    1.8021    0.0021 H         1 <0>         0.0658
     22 H3         -0.5445    1.7859   -0.8732 H         1 <0>         0.0508
     23 H4         -0.5275    1.7763    0.9067 H         1 <0>         0.0951
     24 H5         -0.0648   -0.2323   -3.2780 H         1 <0>         0.4177
     25 H6         -2.2140   -0.4514   -4.0499 H         1 <0>         0.1021
     26 H7         -1.5156   -1.9884   -4.6218 H         1 <0>         0.0590
     27 H8         -4.0691   -1.6115   -2.9995 H         1 <0>         0.1011
     28 H9         -3.9356   -2.2050   -4.6716 H         1 <0>         0.0986
     29 H10        -5.2240   -4.1718   -3.8603 H         1 <0>         0.1476
     30 H11        -1.1045   -5.6044   -1.5890 H         1 <0>         0.1445
     31 H12        -1.1736   -2.9435   -0.1847 H         1 <0>         0.0882
     32 H13        -0.1649   -4.2950   -0.7632 H         1 <0>         0.1215
@<TRIPOS>BOND
     1    1    2 1
     2    1   21 1
     3    1   22 1
     4    1   23 1
     5    2    3 1
     6    3   18 1
     7    3    4 2
     8    3    5 1
     9    5    6 1
    10    5   24 1
    11    6   15 1
    12    6    7 1
    13    7    8 1
    14    7   25 1
    15    7   26 1
    16    8    9 1
    17    8   27 1
    18    8   28 1
    19    9   14 ar
    20    9   10 ar
    21   10   11 ar
    22   10   29 1
    23   11   12 ar
    24   11   20 1
    25   12   13 ar
    26   12   19 1
    27   13   14 ar
    28   13   30 1
    29   14   15 1
    30   15   16 1
    31   15   17 1
    32   17   18 1
    33   17   31 1
    34   17   32 1
@<TRIPOS>MOLECULE
ZINC59274960
   41    44     0     0     0
SMALL
USER_CHARGES

@<TRIPOS>ATOM
      1 C1         -0.0167    1.3790    0.0096 C.ar      1 <0>        -0.0950
      2 C2          1.1661    2.0857    0.0021 C.ar      1 <0>        -0.1012
      3 C3          2.3952    1.4298   -0.0184 C.ar      1 <0>        -0.0778
      4 C4          2.4118    0.0483   -0.0408 C.ar      1 <0>        -0.1075
      5 C5          1.2121   -0.6667   -0.0218 C.ar      1 <0>         0.1123
      6 C6          0.0021   -0.0041    0.0020 C.ar      1 <0>        -0.1333
      7 F1          1.2367   -2.0175   -0.0272 F         1 <0>        -0.1276
      8 S1          3.9190   -0.8677   -0.1131 S.3       1 <0>        -0.0958
      9 C7          5.1867    0.3817    0.2536 C.3       1 <0>        -0.1060
     10 C8          4.8515    1.6258   -0.5820 C.3       1 <0>        -0.1320
     11 C9          3.6193    2.2968   -0.0013 C.3       1 <0>         0.1872
     12 H1          3.8306    2.5807    1.0297 H         1 <0>         0.1088
     13 N1          3.3424    3.5128   -0.7700 N.am      1 <0>        -0.7196
     14 C10         2.7371    4.5613   -0.1778 C.2       1 <0>         0.5989
     15 O1          2.4209    4.4980    0.9947 O.2       1 <0>        -0.5354
     16 C11         2.4585    5.7848   -0.9513 C.2       1 <0>        -0.2859
     17 C12         2.7600    6.0021   -2.3148 C.2       1 <0>         0.0944
     18 N2          2.3591    7.2027   -2.6316 N.2       1 <0>        -0.2825
     19 N3          1.7899    7.8033   -1.5031 N.pl3     1 <0>        -0.3100
     20 C13         1.8486    6.9307   -0.4809 C.2       1 <0>         0.1354
     21 C14         1.2461    9.0941   -1.4484 C.ar      1 <0>         0.1639
     22 C15         0.7154    9.5753   -0.2590 C.ar      1 <0>        -0.1303
     23 C16         0.1806   10.8476   -0.2077 C.ar      1 <0>        -0.0620
     24 C17         0.1734   11.6426   -1.3402 C.ar      1 <0>        -0.0975
     25 C18         0.7017   11.1654   -2.5267 C.ar      1 <0>        -0.0657
     26 C19         1.2424    9.8958   -2.5820 C.ar      1 <0>        -0.1060
     27 Br1        -0.5602   13.3839   -1.2663 Br        1 <0>        -0.0353
     28 H2         -0.9595    1.9056    0.0260 H         1 <0>         0.1354
     29 H3          1.1401    3.1653    0.0120 H         1 <0>         0.1352
     30 H4         -0.9232   -0.5609    0.0150 H         1 <0>         0.1427
     31 H5          5.1668    0.6305    1.3147 H         1 <0>         0.0985
     32 H6          6.1713    0.0036   -0.0217 H         1 <0>         0.1238
     33 H7          5.6914    2.3200   -0.5551 H         1 <0>         0.0974
     34 H8          4.6542    1.3304   -1.6125 H         1 <0>         0.0890
     35 H9          3.5946    3.5633   -1.7053 H         1 <0>         0.4043
     36 H10         3.2390    5.2976   -2.9786 H         1 <0>         0.1981
     37 H11         1.4870    7.0967    0.5232 H         1 <0>         0.1948
     38 H12         0.7205    8.9551    0.6251 H         1 <0>         0.1429
     39 H13        -0.2326   11.2222    0.7171 H         1 <0>         0.1472
     40 H14         0.6949   11.7879   -3.4092 H         1 <0>         0.1460
     41 H15         1.6587    9.5255   -3.5072 H         1 <0>         0.1500
@<TRIPOS>BOND
     1    1    6 ar
     2    1    2 ar
     3    1   28 1
     4    2    3 ar
     5    2   29 1
     6    3   11 1
     7    3    4 ar
     8    4    5 ar
     9    4    8 1
    10    5    6 ar
    11    5    7 1
    12    6   30 1
    13    8    9 1
    14    9   10 1
    15    9   31 1
    16    9   32 1
    17   10   11 1
    18   10   33 1
    19   10   34 1
    20   11   12 1
    21   11   13 1
    22   13   14 am
    23   13   35 1
    24   14   15 2
    25   14   16 1
    26   16   20 2
    27   16   17 1
    28   17   18 2
    29   17   36 1
    30   18   19 1
    31   19   20 1
    32   19   21 1
    33   20   37 1
    34   21   26 ar
    35   21   22 ar
    36   22   23 ar
    37   22   38 1
    38   23   24 ar
    39   23   39 1
    40   24   25 ar
    41   24   27 1
    42   25   26 ar
    43   25   40 1
    44   26   41 1
@<TRIPOS>MOLECULE
ZINC08739132
   37    40     0     0     0
SMALL
USER_CHARGES

@<TRIPOS>ATOM
      1 C1         -1.0768    2.0460    0.7059 C.ar      1 <0>        -0.0714
      2 C2          0.0096    2.8957    0.6905 C.ar      1 <0>        -0.1492
      3 C3          1.2794    2.3963    0.4486 C.ar      1 <0>         0.1145
      4 C4          1.4646    1.0421    0.2206 C.ar      1 <0>        -0.1470
      5 C5          0.3847    0.1840    0.2335 C.ar      1 <0>        -0.0594
      6 C6         -0.8956    0.6816    0.4775 C.ar      1 <0>        -0.0531
      7 C7         -2.0575   -0.2344    0.4934 C.2       1 <0>         0.1466
      8 C8         -2.1248   -1.4408    1.1132 C.2       1 <0>        -0.2381
      9 C9         -3.3977   -1.9797    0.8832 C.2       1 <0>         0.0914
     10 N1         -4.0747   -1.1383    0.1528 N.2       1 <0>        -0.2695
     11 N2         -3.2652   -0.0227   -0.1073 N.pl3     1 <0>        -0.4721
     12 H1         -3.5175    0.7586   -0.6239 H         1 <0>         0.4424
     13 C10        -3.8548   -3.3143    1.4208 C.3       1 <0>        -0.0571
     14 C11        -2.6209   -4.1289    1.8279 C.3       1 <0>         0.1159
     15 N3         -1.7054   -3.2776    2.6001 N.am      1 <0>        -0.6024
     16 C12        -1.0577   -2.1403    1.9214 C.3       1 <0>         0.1828
     17 C13        -1.4632   -3.5309    3.9015 C.2       1 <0>         0.6083
     18 O1         -2.0888   -4.4007    4.4789 O.2       1 <0>        -0.5089
     19 C14        -0.4464   -2.7590    4.6215 C.2       1 <0>        -0.0567
     20 C15        -0.1951   -2.8174    5.9628 C.2       1 <0>        -0.1117
     21 C16         0.8514   -1.9185    6.2171 C.2       1 <0>        -0.1622
     22 C17         1.1901   -1.3565    5.0338 C.2       1 <0>        -0.0091
     23 O2          0.4093   -1.8702    4.0742 O.3       1 <0>        -0.1432
     24 Br1         2.5471   -0.0650    4.7759 Br        1 <0>         0.0652
     25 F1          2.3403    3.2326    0.4344 F         1 <0>        -0.1337
     26 H2         -2.0655    2.4355    0.8990 H         1 <0>         0.1342
     27 H3         -0.1296    3.9520    0.8668 H         1 <0>         0.1424
     28 H4          2.4562    0.6578    0.0322 H         1 <0>         0.1441
     29 H5          0.5300   -0.8712    0.0551 H         1 <0>         0.1392
     30 H6         -4.4936   -3.1589    2.2902 H         1 <0>         0.0931
     31 H7         -4.4079   -3.8494    0.6488 H         1 <0>         0.1011
     32 H8         -2.9307   -4.9770    2.4385 H         1 <0>         0.1088
     33 H9         -2.1134   -4.4909    0.9338 H         1 <0>         0.0836
     34 H10        -0.2687   -2.5014    1.2617 H         1 <0>         0.0829
     35 H11        -0.6415   -1.4548    2.6597 H         1 <0>         0.1069
     36 H12        -0.7039   -3.4357    6.6875 H         1 <0>         0.1718
     37 H13         1.3017   -1.7133    7.1771 H         1 <0>         0.1696
@<TRIPOS>BOND
     1    1    6 ar
     2    1    2 ar
     3    1   26 1
     4    2    3 ar
     5    2   27 1
     6    3    4 ar
     7    3   25 1
     8    4    5 ar
     9    4   28 1
    10    5    6 ar
    11    5   29 1
    12    6    7 1
    13    7   11 1
    14    7    8 2
    15    8   16 1
    16    8    9 1
    17    9   10 2
    18    9   13 1
    19   10   11 1
    20   11   12 1
    21   13   14 1
    22   13   30 1
    23   13   31 1
    24   14   15 1
    25   14   32 1
    26   14   33 1
    27   15   16 1
    28   15   17 am
    29   16   34 1
    30   16   35 1
    31   17   18 2
    32   17   19 1
    33   19   23 1
    34   19   20 2
    35   20   21 1
    36   20   36 1
    37   21   22 2
    38   21   37 1
    39   22   23 1
    40   22   24 1
@<TRIPOS>MOLECULE
ZINC37888927
   41    42     0     0     0
SMALL
USER_CHARGES

@<TRIPOS>ATOM
      1 C1         -0.0187    1.5258    0.0104 C.3       1 <0>        -0.1812
      2 C2          0.0021   -0.0041    0.0020 C.3       1 <0>         0.0881
      3 H1          0.5123   -0.3556   -0.8948 H         1 <0>         0.1492
      4 C3         -1.4117   -0.5257    0.0127 C.ar      1 <0>        -0.2065
      5 C4         -2.0078   -0.9625   -1.1607 C.ar      1 <0>        -0.0398
      6 C5         -3.3101   -1.4342   -1.1032 C.ar      1 <0>        -0.1572
      7 C6         -3.9665   -1.4533    0.1131 C.ar      1 <0>         0.1321
      8 N1         -3.3683   -1.0294    1.2090 N.ar      1 <0>        -0.4675
      9 C7         -2.1285   -0.5800    1.1928 C.ar      1 <0>         0.1071
     10 N2          0.7126   -0.4907    1.1921 N.4       1 <0>        -0.5033
     11 C8          2.1220   -0.0825    1.1220 C.3       1 <0>        -0.0460
     12 C9          2.8620   -0.5894    2.3615 C.3       1 <0>         0.0862
     13 H2          2.8002   -1.6769    2.4022 H         1 <0>         0.1370
     14 C10         4.3299   -0.1643    2.2885 C.3       1 <0>         0.0291
     15 O1          5.0462   -0.7350    3.3854 O.3       1 <0>        -0.2981
     16 C11         6.3731   -0.4536    3.4691 C.ar      1 <0>         0.1258
     17 C12         6.9722    0.3601    2.5180 C.ar      1 <0>        -0.1953
     18 C13         8.3210    0.6449    2.6048 C.ar      1 <0>        -0.0715
     19 C14         9.0748    0.1201    3.6383 C.ar      1 <0>        -0.1194
     20 C15         8.4804   -0.6918    4.5877 C.ar      1 <0>        -0.0516
     21 C16         7.1294   -0.9746    4.5084 C.ar      1 <0>        -0.1182
     22 Br1         9.5147   -1.4087    5.9991 Br        1 <0>        -0.0257
     23 O2          2.2630   -0.0341    3.5341 O.3       1 <0>        -0.5421
     24 H3          1.0039    1.9031    0.0027 H         1 <0>         0.0864
     25 H4         -0.5459    1.8868   -0.8726 H         1 <0>         0.1097
     26 H5         -0.5289    1.8773    0.9072 H         1 <0>         0.0855
     27 H6         -1.4704   -0.9356   -2.0971 H         1 <0>         0.1479
     28 H7         -3.8057   -1.7820   -1.9976 H         1 <0>         0.1532
     29 H8         -4.9813   -1.8192    0.1663 H         1 <0>         0.1724
     30 H9         -1.6697   -0.2462    2.1118 H         1 <0>         0.1499
     31 H10         0.2896   -0.0986    2.0201 H         1 <0>         0.4305
     32 H11         2.5788   -0.5061    0.2276 H         1 <0>         0.1495
     33 H12         2.1837    1.0050    1.0814 H         1 <0>         0.1433
     34 H13         4.7629   -0.5129    1.3510 H         1 <0>         0.0837
     35 H14         4.3963    0.9226    2.3374 H         1 <0>         0.0789
     36 H15         6.3843    0.7701    1.7102 H         1 <0>         0.1309
     37 H16         8.7874    1.2779    1.8644 H         1 <0>         0.1393
     38 H17        10.1293    0.3440    3.7044 H         1 <0>         0.1404
     39 H18         6.6643   -1.6042    5.2526 H         1 <0>         0.1438
     40 H19         2.2821    0.9322    3.5656 H         1 <0>         0.3903
     41 H20         0.6554   -1.4974    1.2298 H         1 <0>         0.4333
@<TRIPOS>BOND
     1    1    2 1
     2    1   24 1
     3    1   25 1
     4    1   26 1
     5    2    3 1
     6    2    4 1
     7    2   10 1
     8    4    9 ar
     9    4    5 ar
    10    5    6 ar
    11    5   27 1
    12    6    7 ar
    13    6   28 1
    14    7    8 ar
    15    7   29 1
    16    8    9 ar
    17    9   30 1
    18   10   11 1
    19   10   31 1
    20   10   41 1
    21   11   12 1
    22   11   32 1
    23   11   33 1
    24   12   13 1
    25   12   14 1
    26   12   23 1
    27   14   15 1
    28   14   34 1
    29   14   35 1
    30   15   16 1
    31   16   21 ar
    32   16   17 ar
    33   17   18 ar
    34   17   36 1
    35   18   19 ar
    36   18   37 1
    37   19   20 ar
    38   19   38 1
    39   20   21 ar
    40   20   22 1
    41   21   39 1
    42   23   40 1
@<TRIPOS>MOLECULE
ZINC41065462
   39    40     0     0     0
SMALL
USER_CHARGES

@<TRIPOS>ATOM
      1 C1         -0.0187    1.5258    0.0104 C.3       1 <0>        -0.1576
      2 C2          0.0021   -0.0041    0.0020 C.3       1 <0>         0.0525
      3 O1          0.6932   -0.4774    1.1597 O.3       1 <0>        -0.2975
      4 C3          0.8021   -1.8251    1.3058 C.ar      1 <0>         0.1132
      5 C4          0.2606   -2.6728    0.3527 C.ar      1 <0>        -0.1753
      6 C5          0.3725   -4.0425    0.5024 C.ar      1 <0>        -0.1393
      7 C6          1.0237   -4.5699    1.6021 C.ar      1 <0>        -0.1106
      8 C7          1.5657   -3.7298    2.5569 C.ar      1 <0>        -0.1052
      9 C8          1.4624   -2.3558    2.4097 C.ar      1 <0>         0.1169
     10 O2          2.0003   -1.5279    3.3449 O.3       1 <0>        -0.4819
     11 C9         -0.2169   -4.9629   -0.5351 C.3       1 <0>         0.0470
     12 N1          0.7874   -5.2406   -1.5706 N.4       1 <0>        -0.5101
     13 C10         0.2127   -6.1378   -2.5819 C.3       1 <0>         0.0475
     14 C11         1.2430   -6.4226   -3.6442 C.ar      1 <0>        -0.1940
     15 C12         1.2070   -5.7368   -4.8436 C.ar      1 <0>        -0.0347
     16 C13         2.1525   -5.9981   -5.8187 C.ar      1 <0>        -0.1052
     17 C14         3.1349   -6.9461   -5.5942 C.ar      1 <0>        -0.0270
     18 C15         3.1721   -7.6324   -4.3956 C.ar      1 <0>        -0.1378
     19 C16         2.2292   -7.3672   -3.4167 C.ar      1 <0>         0.1362
     20 F1          2.2683   -8.0340   -2.2423 F         1 <0>        -0.1252
     21 Br1         2.1020   -5.0597   -7.4596 Br        1 <0>        -0.0066
     22 H1          1.0039    1.9031    0.0027 H         1 <0>         0.0712
     23 H2         -0.5459    1.8868   -0.8726 H         1 <0>         0.0848
     24 H3         -0.5289    1.8773    0.9072 H         1 <0>         0.0714
     25 H4         -1.0205   -0.3814    0.0098 H         1 <0>         0.0652
     26 H5          0.5123   -0.3556   -0.8948 H         1 <0>         0.0625
     27 H6         -0.2492   -2.2634   -0.5069 H         1 <0>         0.1404
     28 H7          1.1087   -5.6405    1.7157 H         1 <0>         0.1391
     29 H8          2.0735   -4.1443    3.4152 H         1 <0>         0.1503
     30 H9          1.3952   -1.3013    4.0643 H         1 <0>         0.4020
     31 H10        -0.5192   -5.8973   -0.0622 H         1 <0>         0.1435
     32 H11        -1.0862   -4.4882   -0.9901 H         1 <0>         0.1408
     33 H12         1.0671   -4.3756   -2.0083 H         1 <0>         0.4281
     34 H13        -0.0895   -7.0722   -2.1090 H         1 <0>         0.1459
     35 H14        -0.6566   -5.6630   -3.0369 H         1 <0>         0.1488
     36 H15         0.4402   -4.9970   -5.0197 H         1 <0>         0.1543
     37 H16         3.8726   -7.1499   -6.3561 H         1 <0>         0.1579
     38 H17         3.9386   -8.3729   -4.2208 H         1 <0>         0.1604
     39 H18         1.5921   -5.6801   -1.1494 H         1 <0>         0.4284
@<TRIPOS>BOND
     1    1    2 1
     2    1   22 1
     3    1   23 1
     4    1   24 1
     5    2    3 1
     6    2   25 1
     7    2   26 1
     8    3    4 1
     9    4    9 ar
    10    4    5 ar
    11    5    6 ar
    12    5   27 1
    13    6    7 ar
    14    6   11 1
    15    7    8 ar
    16    7   28 1
    17    8    9 ar
    18    8   29 1
    19    9   10 1
    20   10   30 1
    21   11   12 1
    22   11   31 1
    23   11   32 1
    24   12   13 1
    25   12   33 1
    26   12   39 1
    27   13   14 1
    28   13   34 1
    29   13   35 1
    30   14   19 ar
    31   14   15 ar
    32   15   16 ar
    33   15   36 1
    34   16   17 ar
    35   16   21 1
    36   17   18 ar
    37   17   37 1
    38   18   19 ar
    39   18   38 1
    40   19   20 1
@<TRIPOS>MOLECULE
ZINC51576351
   41    42     0     0     0
SMALL
USER_CHARGES

@<TRIPOS>ATOM
      1 C1         -0.0184    1.5028    0.0103 C.3       1 <0>        -0.1151
      2 C2          0.0021   -0.0041    0.0020 C.ar      1 <0>         0.1448
      3 C3          0.0055   -0.6806   -1.2034 C.ar      1 <0>        -0.1345
      4 C4          0.0244   -2.0667   -1.1999 C.ar      1 <0>        -0.0637
      5 C5          0.0391   -2.7236    0.0213 C.ar      1 <0>        -0.1490
      6 C6          0.0345   -1.9800    1.1859 C.ar      1 <0>         0.0502
      7 N1          0.0219   -0.6618    1.1446 N.ar      1 <0>        -0.4695
      8 C7          0.0504   -2.6832    2.5186 C.3       1 <0>         0.0601
      9 N2          1.4340   -2.7863    3.0015 N.4       1 <0>        -0.5012
     10 C8          1.4494   -3.4718    4.3006 C.3       1 <0>        -0.0416
     11 C9          2.8905   -3.5791    4.8035 C.3       1 <0>         0.0856
     12 H1          3.3118   -2.5800    4.9149 H         1 <0>         0.1368
     13 C10         2.9066   -4.2931    6.1566 C.3       1 <0>         0.0291
     14 O1          4.2360   -4.2905    6.6808 O.3       1 <0>        -0.2985
     15 C11         4.4252   -4.8895    7.8859 C.ar      1 <0>         0.1259
     16 C12         3.3542   -5.4730    8.5476 C.ar      1 <0>        -0.1951
     17 C13         3.5485   -6.0813    9.7724 C.ar      1 <0>        -0.0714
     18 C14         4.8092   -6.1094   10.3397 C.ar      1 <0>        -0.1195
     19 C15         5.8788   -5.5281    9.6825 C.ar      1 <0>        -0.0517
     20 C16         5.6902   -4.9235    8.4535 C.ar      1 <0>        -0.1184
     21 Br1         7.6012   -5.5674   10.4619 Br        1 <0>        -0.0261
     22 O2          3.6689   -4.3223    3.8635 O.3       1 <0>        -0.5429
     23 H2          1.0042    1.8801    0.0026 H         1 <0>         0.0881
     24 H3         -0.5455    1.8639   -0.8728 H         1 <0>         0.0861
     25 H4         -0.5286    1.8543    0.9071 H         1 <0>         0.0841
     26 H5         -0.0066   -0.1362   -2.1360 H         1 <0>         0.1511
     27 H6          0.0272   -2.6219   -2.1263 H         1 <0>         0.1509
     28 H7          0.0536   -3.8027    0.0616 H         1 <0>         0.1448
     29 H8         -0.5434   -2.1164    3.2357 H         1 <0>         0.1480
     30 H9         -0.3709   -3.6823    2.4073 H         1 <0>         0.1466
     31 H10         1.9836   -3.3110    2.3377 H         1 <0>         0.4321
     32 H11         0.8556   -2.9049    5.0177 H         1 <0>         0.1498
     33 H12         1.0281   -4.4709    4.1893 H         1 <0>         0.1420
     34 H13         2.2422   -3.7755    6.8485 H         1 <0>         0.0842
     35 H14         2.5684   -5.3214    6.0288 H         1 <0>         0.0789
     36 H15         2.3691   -5.4512    8.1054 H         1 <0>         0.1311
     37 H16         2.7149   -6.5351   10.2877 H         1 <0>         0.1394
     38 H17         4.9590   -6.5855   11.2974 H         1 <0>         0.1403
     39 H18         6.5262   -4.4743    7.9381 H         1 <0>         0.1436
     40 H19         3.3509   -5.2232    3.7145 H         1 <0>         0.3900
     41 H20         1.8240   -1.8614    3.1046 H         1 <0>         0.4346
@<TRIPOS>BOND
     1    1    2 1
     2    1   23 1
     3    1   24 1
     4    1   25 1
     5    2    7 ar
     6    2    3 ar
     7    3    4 ar
     8    3   26 1
     9    4    5 ar
    10    4   27 1
    11    5    6 ar
    12    5   28 1
    13    6    7 ar
    14    6    8 1
    15    8    9 1
    16    8   29 1
    17    8   30 1
    18    9   10 1
    19    9   31 1
    20    9   41 1
    21   10   11 1
    22   10   32 1
    23   10   33 1
    24   11   12 1
    25   11   13 1
    26   11   22 1
    27   13   14 1
    28   13   34 1
    29   13   35 1
    30   14   15 1
    31   15   20 ar
    32   15   16 ar
    33   16   17 ar
    34   16   36 1
    35   17   18 ar
    36   17   37 1
    37   18   19 ar
    38   18   38 1
    39   19   20 ar
    40   19   21 1
    41   20   39 1
    42   22   40 1
@<TRIPOS>MOLECULE
ZINC62426600
   53    56     0     0     0
SMALL
USER_CHARGES

@<TRIPOS>ATOM
      1 C1         -0.0167    1.3781    0.0096 C.ar      1 <0>        -0.1139
      2 C2          1.1709    2.0855    0.0021 C.ar      1 <0>        -0.1192
      3 C3          2.3773    1.4107   -0.0130 C.ar      1 <0>        -0.0979
      4 C4          2.3960    0.0285   -0.0201 C.ar      1 <0>        -0.0878
      5 C5          1.2084   -0.6789   -0.0117 C.ar      1 <0>        -0.1153
      6 C6          0.0021   -0.0041    0.0020 C.ar      1 <0>        -0.1189
      7 C7          3.7112   -0.7071   -0.0376 C.3       1 <0>         0.0970
      8 N1          4.1530   -0.9531    1.3416 N.3       1 <0>        -0.5301
      9 C8          3.2403   -1.8746    2.0302 C.3       1 <0>         0.0444
     10 C9          3.6468   -1.9933    3.5008 C.3       1 <0>        -0.1152
     11 C10         5.0854   -2.5104    3.5875 C.3       1 <0>        -0.1334
     12 C11         6.0086   -1.5587    2.8217 C.3       1 <0>        -0.1117
     13 C12         5.5336   -1.4525    1.3708 C.3       1 <0>         0.0633
     14 C13         7.4393   -2.0998    2.8526 C.3       1 <0>        -0.0093
     15 N2          7.9356   -2.0933    4.2352 N.4       1 <0>        -0.5110
     16 C14         9.3093   -2.6129    4.2648 C.3       1 <0>         0.0813
     17 C15         9.8184   -2.6063    5.6832 C.2       1 <0>        -0.3113
     18 C16        10.6273   -1.6754    6.2335 C.2       1 <0>         0.1256
     19 N3         10.8535   -2.0252    7.5182 N.pl3     1 <0>        -0.4476
     20 H1         11.4009   -1.5369    8.1529 H         1 <0>         0.4580
     21 N4         10.1609   -3.2152    7.7755 N.2       1 <0>        -0.2465
     22 C17         9.5299   -3.5677    6.6736 C.2       1 <0>         0.1814
     23 C18         8.6737   -4.7620    6.5046 C.2       1 <0>        -0.1176
     24 C19         8.8044   -6.0033    7.0663 C.2       1 <0>        -0.0876
     25 C20         7.8728   -6.9713    6.7582 C.2       1 <0>        -0.1551
     26 C21         6.8577   -6.6661    5.9105 C.2       1 <0>        -0.1153
     27 S1          7.1965   -4.9571    5.5211 S.3       1 <0>        -0.0081
     28 H2         -0.9591    1.9053    0.0259 H         1 <0>         0.1240
     29 H3          1.1563    3.1654    0.0076 H         1 <0>         0.1240
     30 H4          3.3051    1.9634   -0.0196 H         1 <0>         0.1213
     31 H5          1.2231   -1.7588   -0.0176 H         1 <0>         0.1175
     32 H6         -0.9258   -0.5567    0.0082 H         1 <0>         0.1236
     33 H7          3.5884   -1.6586   -0.5549 H         1 <0>         0.0476
     34 H8          4.4573   -0.1052   -0.5563 H         1 <0>         0.0870
     35 H9          2.2214   -1.4931    1.9647 H         1 <0>         0.0902
     36 H10         3.2914   -2.8561    1.5589 H         1 <0>         0.0382
     37 H11         3.5826   -1.0146    3.9763 H         1 <0>         0.0774
     38 H12         2.9787   -2.6894    4.0080 H         1 <0>         0.0784
     39 H13         5.3940   -2.5554    4.6320 H         1 <0>         0.0603
     40 H14         5.1419   -3.5058    3.1468 H         1 <0>         0.0768
     41 H15         5.9816   -0.5731    3.2865 H         1 <0>         0.1053
     42 H16         5.5740   -2.4360    0.9026 H         1 <0>         0.0459
     43 H17         6.1803   -0.7644    0.8264 H         1 <0>         0.0871
     44 H18         7.4505   -3.1194    2.4673 H         1 <0>         0.1340
     45 H19         8.0792   -1.4706    2.2339 H         1 <0>         0.1396
     46 H20         7.9252   -1.1495    4.5919 H         1 <0>         0.4262
     47 H21         9.3205   -3.6325    3.8795 H         1 <0>         0.1376
     48 H22         9.9492   -1.9837    3.6462 H         1 <0>         0.1447
     49 H23        11.0242   -0.8041    5.7337 H         1 <0>         0.1976
     50 H24         9.6221   -6.2202    7.7377 H         1 <0>         0.1471
     51 H25         7.9498   -7.9601    7.1856 H         1 <0>         0.1536
     52 H26         6.0504   -7.2942    5.5639 H         1 <0>         0.2014
     53 H27         7.3433   -2.6758    4.8079 H         1 <0>         0.4154
@<TRIPOS>BOND
     1    1    6 ar
     2    1    2 ar
     3    1   28 1
     4    2    3 ar
     5    2   29 1
     6    3    4 ar
     7    3   30 1
     8    4    5 ar
     9    4    7 1
    10    5    6 ar
    11    5   31 1
    12    6   32 1
    13    7    8 1
    14    7   33 1
    15    7   34 1
    16    8   13 1
    17    8    9 1
    18    9   10 1
    19    9   35 1
    20    9   36 1
    21   10   11 1
    22   10   37 1
    23   10   38 1
    24   11   12 1
    25   11   39 1
    26   11   40 1
    27   12   13 1
    28   12   14 1
    29   12   41 1
    30   13   42 1
    31   13   43 1
    32   14   15 1
    33   14   44 1
    34   14   45 1
    35   15   16 1
    36   15   46 1
    37   15   53 1
    38   16   17 1
    39   16   47 1
    40   16   48 1
    41   17   22 1
    42   17   18 2
    43   18   19 1
    44   18   49 1
    45   19   20 1
    46   19   21 1
    47   21   22 2
    48   22   23 1
    49   23   27 1
    50   23   24 2
    51   24   25 1
    52   24   50 1
    53   25   26 2
    54   25   51 1
    55   26   27 1
    56   26   52 1
@<TRIPOS>MOLECULE
ZINC67504273
   45    48     0     0     0
SMALL
USER_CHARGES

@<TRIPOS>ATOM
      1 C1         -0.0506    1.2919   -0.2570 C.ar      1 <0>        -0.0796
      2 C2          1.1326    1.9960   -0.3382 C.ar      1 <0>        -0.1084
      3 C3          2.3437    1.3248   -0.3204 C.ar      1 <0>        -0.0149
      4 C4          2.3750   -0.0560   -0.2210 C.ar      1 <0>        -0.1058
      5 C5          1.1984   -0.7713   -0.1396 C.ar      1 <0>        -0.0715
      6 C6         -0.0256   -0.1002   -0.1566 C.ar      1 <0>        -0.0456
      7 C7         -1.2898   -0.8606   -0.0687 C.2       1 <0>         0.0956
      8 C8         -1.4027   -2.2112    0.0377 C.2       1 <0>        -0.2030
      9 C9         -2.7811   -2.5004    0.0920 C.2       1 <0>        -0.1264
     10 C10        -3.4342   -1.3244    0.0169 C.2       1 <0>        -0.1166
     11 O1         -2.5300   -0.3353   -0.0742 O.3       1 <0>        -0.1621
     12 C11        -4.9307   -1.1476    0.0378 C.3       1 <0>         0.0922
     13 N1         -5.3851   -0.9843    1.4252 N.4       1 <0>        -0.5122
     14 C12        -6.8240   -0.6883    1.4375 C.3       1 <0>         0.1066
     15 H1         -7.0166    0.1822    0.8105 H         1 <0>         0.1491
     16 C13        -7.5888   -1.8875    0.8817 C.3       1 <0>        -0.1492
     17 C14        -9.0862   -1.6504    1.1140 C.3       1 <0>        -0.1094
     18 C15        -9.3564   -1.7378    2.6143 C.3       1 <0>        -0.1137
     19 C16        -8.4033   -0.8561    3.3802 C.2       1 <0>         0.2405
     20 C17        -7.2566   -0.3886    2.8489 C.2       1 <0>        -0.2649
     21 C18        -6.4069    0.4209    3.6288 C.2       1 <0>        -0.0486
     22 C19        -6.7490    0.7288    4.9093 C.2       1 <0>        -0.1978
     23 C20        -7.9552    0.2300    5.4304 C.2       1 <0>         0.5171
     24 O2         -8.2842    0.4958    6.5754 O.2       1 <0>        -0.5125
     25 N2         -8.7440   -0.5377    4.6643 N.am      1 <0>        -0.6076
     26 H2         -9.5757   -0.8758    5.0314 H         1 <0>         0.4248
     27 Cl1         3.8287    2.2179   -0.4237 Cl        1 <0>        -0.0468
     28 H3         -0.9944    1.8168   -0.2665 H         1 <0>         0.1379
     29 H4          1.1146    3.0731   -0.4163 H         1 <0>         0.1447
     30 H5          3.3226   -0.5740   -0.2076 H         1 <0>         0.1477
     31 H6          1.2240   -1.8482   -0.0628 H         1 <0>         0.1421
     32 H7         -0.5928   -2.9247    0.0733 H         1 <0>         0.1659
     33 H8         -3.2289   -3.4794    0.1777 H         1 <0>         0.1654
     34 H9         -5.2001   -0.2630   -0.5393 H         1 <0>         0.1488
     35 H10        -5.4064   -2.0254   -0.3994 H         1 <0>         0.1609
     36 H11        -5.2125   -1.8359    1.9380 H         1 <0>         0.4293
     37 H12        -7.3934   -1.9856   -0.1862 H         1 <0>         0.1029
     38 H13        -7.2757   -2.7949    1.3982 H         1 <0>         0.0950
     39 H14        -9.3631   -0.6619    0.7476 H         1 <0>         0.0871
     40 H15        -9.6645   -2.4122    0.5913 H         1 <0>         0.1036
     41 H16       -10.3794   -1.4190    2.8140 H         1 <0>         0.1071
     42 H17        -9.2324   -2.7700    2.9418 H         1 <0>         0.1110
     43 H18        -5.4846    0.7963    3.2106 H         1 <0>         0.1314
     44 H19        -6.1038    1.3472    5.5156 H         1 <0>         0.1630
     45 H20        -4.8816   -0.2239    1.8567 H         1 <0>         0.4271
@<TRIPOS>BOND
     1    1    6 ar
     2    1    2 ar
     3    1   28 1
     4    2    3 ar
     5    2   29 1
     6    3    4 ar
     7    3   27 1
     8    4    5 ar
     9    4   30 1
    10    5    6 ar
    11    5   31 1
    12    6    7 1
    13    7   11 1
    14    7    8 2
    15    8    9 1
    16    8   32 1
    17    9   10 2
    18    9   33 1
    19   10   11 1
    20   10   12 1
    21   12   13 1
    22   12   34 1
    23   12   35 1
    24   13   14 1
    25   13   36 1
    26   13   45 1
    27   14   15 1
    28   14   20 1
    29   14   16 1
    30   16   17 1
    31   16   37 1
    32   16   38 1
    33   17   18 1
    34   17   39 1
    35   17   40 1
    36   18   19 1
    37   18   41 1
    38   18   42 1
    39   19   25 1
    40   19   20 2
    41   20   21 1
    42   21   22 2
    43   21   43 1
    44   22   23 1
    45   22   44 1
    46   23   24 2
    47   23   25 am
    48   25   26 1
@<TRIPOS>MOLECULE
ZINC20116942
   49    50     0     0     0
SMALL
USER_CHARGES
N-[[3-(tert-butylcarbamoyl)phenyl]carbamothioyl]-3-methyl-benzamide
@<TRIPOS>ATOM
      1 C1         -0.9132    0.8937    3.4130 C.3       1 <0>        -0.1215
      2 C2         -0.0448    1.6914    2.4746 C.ar      1 <0>        -0.0866
      3 C3          0.7805    1.0393    1.5753 C.ar      1 <0>        -0.0905
      4 C4          1.5766    1.7640    0.7064 C.ar      1 <0>        -0.1192
      5 C5          1.5561    3.1432    0.7345 C.ar      1 <0>        -0.0970
      6 C6          0.7299    3.8074    1.6427 C.ar      1 <0>        -0.1309
      7 C7         -0.0708    3.0698    2.5172 C.ar      1 <0>        -0.0563
      8 C8          0.7030    5.2844    1.6789 C.2       1 <0>         0.5372
      9 O1         -0.0173    5.8598    2.4707 O.2       1 <0>        -0.4029
     10 N1          1.4774    5.9934    0.8338 N.am      1 <0>        -0.6525
     11 C9          1.4529    7.3405    0.8668 C.2       1 <0>         0.5220
     12 S1          0.4382    8.1511    1.9822 S.2       1 <0>        -0.4998
     13 N2          2.2273    8.0494    0.0217 N.pl3     1 <0>        -0.6341
     14 C10         2.1176    9.4434   -0.0250 C.ar      1 <0>         0.1210
     15 C11         0.8643   10.0435    0.0107 C.ar      1 <0>        -0.0482
     16 C12         0.7508   11.4204   -0.0294 C.ar      1 <0>        -0.1172
     17 C13         1.8807   12.2083   -0.1167 C.ar      1 <0>        -0.0782
     18 C14         3.1435   11.6153   -0.1590 C.ar      1 <0>        -0.1300
     19 C15         3.2583   10.2259   -0.1127 C.ar      1 <0>        -0.0629
     20 C16         4.3555   12.4570   -0.2531 C.2       1 <0>         0.5653
     21 O2          5.4542   11.9385   -0.2902 O.2       1 <0>        -0.5376
     22 N3          4.2420   13.7993   -0.2976 N.am      1 <0>        -0.7291
     23 C17         5.4428   14.6332   -0.3908 C.3       1 <0>         0.1728
     24 C18         6.2081   14.2844   -1.6689 C.3       1 <0>        -0.1663
     25 C19         5.0379   16.1083   -0.4253 C.3       1 <0>        -0.1576
     26 C20         6.3366   14.3780    0.8245 C.3       1 <0>        -0.1673
     27 H1         -0.7579   -0.1802    3.2326 H         1 <0>         0.0699
     28 H2         -1.9696    1.1458    3.2385 H         1 <0>         0.0755
     29 H3         -0.6459    1.1333    4.4528 H         1 <0>         0.0755
     30 H4          0.7998   -0.0402    1.5486 H         1 <0>         0.1305
     31 H5          2.2154    1.2488    0.0042 H         1 <0>         0.1322
     32 H6          2.1776    3.7077    0.0552 H         1 <0>         0.1217
     33 H7         -0.7120    3.5775    3.2226 H         1 <0>         0.1400
     34 H8          2.1294    5.4726    0.1171 H         1 <0>         0.4325
     35 H9          2.9456    7.5320   -0.6313 H         1 <0>         0.4323
     36 H10        -0.0237    9.4320    0.0742 H         1 <0>         0.1438
     37 H11        -0.2254   11.8811    0.0033 H         1 <0>         0.1363
     38 H12         1.7876   13.2837   -0.1526 H         1 <0>         0.1282
     39 H13         4.2328    9.7614   -0.1448 H         1 <0>         0.1379
     40 H14         3.2477   14.2686   -0.2639 H         1 <0>         0.4177
     41 H15         7.1098   14.9106   -1.7388 H         1 <0>         0.0634
     42 H16         5.5655   14.4679   -2.5426 H         1 <0>         0.0541
     43 H17         6.4992   13.2239   -1.6441 H         1 <0>         0.0783
     44 H18         5.9396   16.7345   -0.4953 H         1 <0>         0.0746
     45 H19         4.4877   16.3591    0.4936 H         1 <0>         0.0634
     46 H20         4.3953   16.2918   -1.2990 H         1 <0>         0.0630
     47 H21         7.2383   15.0042    0.7545 H         1 <0>         0.0634
     48 H22         6.6277   13.3175    0.8493 H         1 <0>         0.0784
     49 H23         5.7864   14.6288    1.7434 H         1 <0>         0.0546
@<TRIPOS>BOND
     1    1    2 1
     2    1   27 1
     3    1   28 1
     4    1   29 1
     5    2    7 ar
     6    2    3 ar
     7    3    4 ar
     8    3   30 1
     9    4    5 ar
    10    4   31 1
    11    5    6 ar
    12    5   32 1
    13    6    7 ar
    14    6    8 1
    15    7   33 1
    16    8    9 2
    17    8   10 am
    18   10   11 1
    19   10   34 1
    20   11   12 2
    21   11   13 1
    22   13   14 1
    23   13   35 1
    24   14   19 ar
    25   14   15 ar
    26   15   16 ar
    27   15   36 1
    28   16   17 ar
    29   16   37 1
    30   17   18 ar
    31   17   38 1
    32   18   19 ar
    33   18   20 1
    34   19   39 1
    35   20   21 2
    36   20   22 am
    37   22   23 1
    38   22   40 1
    39   23   24 1
    40   23   25 1
    41   23   26 1
    42   24   41 1
    43   24   42 1
    44   24   43 1
    45   25   44 1
    46   25   45 1
    47   25   46 1
    48   26   47 1
    49   26   48 1
    50   26   49 1
@<TRIPOS>MOLECULE
ZINC46688579
   47    48     0     0     0
SMALL
USER_CHARGES

@<TRIPOS>ATOM
      1 C1          1.5244    1.0610   -0.2751 C.3       1 <0>        -0.1154
      2 C2          0.7352   -0.2151   -0.1343 C.ar      1 <0>        -0.0673
      3 C3         -0.0113   -0.6867   -1.1988 C.ar      1 <0>        -0.1337
      4 C4         -0.7364   -1.8572   -1.0737 C.ar      1 <0>        -0.0951
      5 C5         -0.7174   -2.5595    0.1157 C.ar      1 <0>        -0.1259
      6 C6          0.0310   -2.0886    1.1863 C.ar      1 <0>         0.1479
      7 C7          0.7626   -0.9152    1.0557 C.ar      1 <0>        -0.1459
      8 N1          0.0521   -2.7974    2.3926 N.am      1 <0>        -0.6709
      9 C8         -0.0314   -4.1425    2.3854 C.2       1 <0>         0.5320
     10 O1         -0.0283   -4.7447    1.3326 O.2       1 <0>        -0.4918
     11 C9         -0.1286   -4.8984    3.6855 C.3       1 <0>        -0.1517
     12 S1         -0.2263   -6.6774    3.3448 S.3       1 <0>        -0.0943
     13 C10        -0.3368   -7.4339    4.9898 C.3       1 <0>        -0.1508
     14 C11        -0.4247   -8.9317    4.8490 C.2       1 <0>         0.5326
     15 O2         -0.4138   -9.4390    3.7474 O.2       1 <0>        -0.5128
     16 N2         -0.5153   -9.7076    5.9473 N.am      1 <0>        -0.7227
     17 C12        -0.6007  -11.1637    5.8105 C.3       1 <0>         0.0926
     18 C13        -0.6940  -11.8018    7.1980 C.3       1 <0>         0.1414
     19 H1         -1.5830  -11.4321    7.7089 H         1 <0>         0.1192
     20 C14        -0.7818  -13.2996    7.0572 C.ar      1 <0>        -0.1082
     21 C15         0.3725  -14.0517    6.9404 C.ar      1 <0>        -0.1045
     22 C16         0.2927  -15.4256    6.8112 C.ar      1 <0>        -0.1008
     23 C17        -0.9414  -16.0484    6.7984 C.ar      1 <0>        -0.1053
     24 C18        -2.0965  -15.2964    6.9152 C.ar      1 <0>        -0.0316
     25 C19        -2.0158  -13.9217    7.0506 C.ar      1 <0>        -0.0978
     26 Cl1        -3.6466  -16.0778    6.8992 Cl        1 <0>        -0.0630
     27 O3          0.4678  -11.4620    7.9575 O.3       1 <0>        -0.5484
     28 H2          2.5240    0.8311   -0.6440 H         1 <0>         0.0723
     29 H3          1.0210    1.7238   -0.9789 H         1 <0>         0.0689
     30 H4          1.5992    1.5510    0.6956 H         1 <0>         0.0666
     31 H5         -0.0281   -0.1393   -2.1296 H         1 <0>         0.1242
     32 H6         -1.3186   -2.2227   -1.9067 H         1 <0>         0.1274
     33 H7         -1.2843   -3.4736    0.2129 H         1 <0>         0.1343
     34 H8          1.3490   -0.5486    1.8852 H         1 <0>         0.1251
     35 H9          0.1268   -2.3206    3.2340 H         1 <0>         0.4119
     36 H10         0.7532   -4.6925    4.2923 H         1 <0>         0.1147
     37 H11        -1.0220   -4.5820    4.2238 H         1 <0>         0.1157
     38 H12         0.5493   -7.1748    5.5692 H         1 <0>         0.1132
     39 H13        -1.2259   -7.0642    5.5007 H         1 <0>         0.1128
     40 H14        -0.5241   -9.3020    6.8284 H         1 <0>         0.4071
     41 H15        -1.4869  -11.4229    5.2311 H         1 <0>         0.0835
     42 H16         0.2883  -11.5334    5.2996 H         1 <0>         0.0768
     43 H17         1.3368  -13.5655    6.9497 H         1 <0>         0.1288
     44 H18         1.1947  -16.0125    6.7200 H         1 <0>         0.1368
     45 H19        -1.0036  -17.1218    6.6967 H         1 <0>         0.1367
     46 H20        -2.9172  -13.3345    7.1463 H         1 <0>         0.1364
     47 H21         1.2979  -11.7606    7.5614 H         1 <0>         0.3791
@<TRIPOS>BOND
     1    1    2 1
     2    1   28 1
     3    1   29 1
     4    1   30 1
     5    2    7 ar
     6    2    3 ar
     7    3    4 ar
     8    3   31 1
     9    4    5 ar
    10    4   32 1
    11    5    6 ar
    12    5   33 1
    13    6    7 ar
    14    6    8 1
    15    7   34 1
    16    8    9 am
    17    8   35 1
    18    9   10 2
    19    9   11 1
    20   11   12 1
    21   11   36 1
    22   11   37 1
    23   12   13 1
    24   13   14 1
    25   13   38 1
    26   13   39 1
    27   14   15 2
    28   14   16 am
    29   16   17 1
    30   16   40 1
    31   17   18 1
    32   17   41 1
    33   17   42 1
    34   18   19 1
    35   18   20 1
    36   18   27 1
    37   20   25 ar
    38   20   21 ar
    39   21   22 ar
    40   21   43 1
    41   22   23 ar
    42   22   44 1
    43   23   24 ar
    44   23   45 1
    45   24   25 ar
    46   24   26 1
    47   25   46 1
    48   27   47 1
@<TRIPOS>MOLECULE
ZINC06815982
   41    43     0     0     0
SMALL
USER_CHARGES

@<TRIPOS>ATOM
      1 C1         -0.1536    1.3456   -0.8006 C.ar      1 <0>        -0.1356
      2 C2          0.7506    2.0276   -1.5973 C.ar      1 <0>        -0.0562
      3 C3          1.6484    1.3335   -2.3861 C.ar      1 <0>        -0.1601
      4 C4          1.6493   -0.0497   -2.3841 C.ar      1 <0>         0.1685
      5 C5          0.7385   -0.7437   -1.5810 C.ar      1 <0>        -0.1782
      6 C6         -0.1652   -0.0327   -0.7876 C.ar      1 <0>        -0.0621
      7 C7          0.7316   -2.2198   -1.5725 C.2       1 <0>         0.5330
      8 O1          1.5187   -2.8352   -2.2645 O.2       1 <0>        -0.3859
      9 N1         -0.1476   -2.8850   -0.7972 N.am      1 <0>        -0.6382
     10 C8         -0.1539   -4.2328   -0.7895 C.2       1 <0>         0.5102
     11 S1          0.9547   -5.0997   -1.7643 S.2       1 <0>        -0.4760
     12 N2         -1.0331   -4.8981   -0.0142 N.pl3     1 <0>        -0.6202
     13 C9         -1.1000   -6.2942   -0.0723 C.ar      1 <0>         0.1170
     14 C10         0.0683   -7.0474   -0.0568 C.ar      1 <0>        -0.0579
     15 C11         0.0076   -8.4269   -0.1139 C.ar      1 <0>        -0.1084
     16 C12        -1.2135   -9.0662   -0.1872 C.ar      1 <0>        -0.0818
     17 C13        -2.3926   -8.3189   -0.2032 C.ar      1 <0>        -0.0163
     18 C14        -2.3314   -6.9267   -0.1394 C.ar      1 <0>        -0.0988
     19 C15        -3.7016   -9.0008   -0.2816 C.2       1 <0>         0.0392
     20 C16        -3.8989  -10.3447   -0.3376 C.2       1 <0>        -0.1910
     21 C17        -5.2920  -10.5481   -0.4018 C.2       1 <0>        -0.1786
     22 C18        -5.8698   -9.3311   -0.3821 C.2       1 <0>        -0.0175
     23 O2         -4.9062   -8.3988   -0.3040 O.3       1 <0>        -0.1660
     24 C19        -7.3516   -9.0610   -0.4331 C.3       1 <0>         0.1576
     25 O3         -7.8750   -9.0237    0.8961 O.3       1 <0>        -0.5668
     26 F1          2.5267   -0.7280   -3.1556 F         1 <0>        -0.1092
     27 H1         -0.8492    1.8955   -0.1839 H         1 <0>         0.1401
     28 H2          0.7540    3.1076   -1.6025 H         1 <0>         0.1428
     29 H3          2.3503    1.8721   -3.0055 H         1 <0>         0.1483
     30 H4         -0.8716   -0.5620   -0.1653 H         1 <0>         0.1318
     31 H5         -0.7757   -2.3939   -0.2449 H         1 <0>         0.4091
     32 H6         -1.6194   -4.4088    0.5839 H         1 <0>         0.4085
     33 H7          1.0267   -6.5527   -0.0004 H         1 <0>         0.1499
     34 H8          0.9187   -9.0067   -0.1016 H         1 <0>         0.1388
     35 H9         -1.2568  -10.1444   -0.2324 H         1 <0>         0.1335
     36 H10        -3.2404   -6.3435   -0.1471 H         1 <0>         0.1302
     37 H11        -3.1356  -11.1087   -0.3339 H         1 <0>         0.1553
     38 H12        -5.8002  -11.4994   -0.4569 H         1 <0>         0.1538
     39 H13        -7.5296   -8.1026   -0.9208 H         1 <0>         0.0652
     40 H14        -7.8460   -9.8526   -0.9962 H         1 <0>         0.0833
     41 H15        -8.8259   -8.8537    0.9397 H         1 <0>         0.3888
@<TRIPOS>BOND
     1    1    6 ar
     2    1    2 ar
     3    1   27 1
     4    2    3 ar
     5    2   28 1
     6    3    4 ar
     7    3   29 1
     8    4    5 ar
     9    4   26 1
    10    5    6 ar
    11    5    7 1
    12    6   30 1
    13    7    8 2
    14    7    9 am
    15    9   10 1
    16    9   31 1
    17   10   11 2
    18   10   12 1
    19   12   13 1
    20   12   32 1
    21   13   18 ar
    22   13   14 ar
    23   14   15 ar
    24   14   33 1
    25   15   16 ar
    26   15   34 1
    27   16   17 ar
    28   16   35 1
    29   17   18 ar
    30   17   19 1
    31   18   36 1
    32   19   23 1
    33   19   20 2
    34   20   21 1
    35   20   37 1
    36   21   22 2
    37   21   38 1
    38   22   23 1
    39   22   24 1
    40   24   25 1
    41   24   39 1
    42   24   40 1
    43   25   41 1
@<TRIPOS>MOLECULE
ZINC66930495
   54    56     0     0     0
SMALL
USER_CHARGES

@<TRIPOS>ATOM
      1 C1          0.2460    1.1872   -0.3483 C.3       1 <0>        -0.1605
      2 C2          0.1066   -0.3325   -0.2379 C.3       1 <0>         0.1265
      3 H1          0.5248   -0.8013   -1.1286 H         1 <0>         0.1169
      4 C3         -1.3509   -0.6957   -0.1163 C.2       1 <0>         0.5124
      5 O1         -1.7480   -1.2901    0.8635 O.2       1 <0>        -0.5344
      6 N1         -2.2131   -0.3600   -1.0962 N.am      1 <0>        -0.7170
      7 C4         -3.6300   -0.7131   -0.9780 C.3       1 <0>         0.0957
      8 C5         -4.4060   -0.1070   -2.1490 C.3       1 <0>         0.1708
      9 C6         -4.1903    1.4049   -2.1676 C.3       1 <0>        -0.1061
     10 C7         -5.1408    2.0164   -3.2036 C.3       1 <0>        -0.1179
     11 C8         -6.5685    1.9032   -2.6730 C.3       1 <0>        -0.0869
     12 C9         -6.8622    0.4904   -2.2407 C.ar      1 <0>        -0.0529
     13 C10        -5.8690   -0.4316   -1.9963 C.ar      1 <0>        -0.1125
     14 C11        -6.2077   -1.7167   -1.5938 C.ar      1 <0>        -0.1138
     15 C12        -7.5306   -2.0778   -1.4404 C.ar      1 <0>        -0.1228
     16 C13        -8.5276   -1.1534   -1.6894 C.ar      1 <0>        -0.1078
     17 C14        -8.1931    0.1246   -2.0875 C.ar      1 <0>        -0.1242
     18 O2         -3.9246   -0.6660   -3.3729 O.3       1 <0>        -0.5459
     19 N2          0.8280   -0.8043    0.9467 N.am      1 <0>        -0.7104
     20 C15         2.1492   -1.0603    0.8736 C.2       1 <0>         0.5539
     21 O3          2.7429   -0.8997   -0.1765 O.2       1 <0>        -0.5440
     22 C16         2.8702   -1.5319    2.0576 C.2       1 <0>        -0.2159
     23 C17         4.1917   -1.7881    1.9845 C.2       1 <0>        -0.0113
     24 C18         4.9165   -2.2621    3.1748 C.ar      1 <0>        -0.0808
     25 C19         4.2366   -2.4534    4.3817 C.ar      1 <0>        -0.1003
     26 C20         4.9226   -2.8977    5.4923 C.ar      1 <0>        -0.1226
     27 C21         6.2804   -3.1541    5.4147 C.ar      1 <0>        -0.1068
     28 C22         6.9604   -2.9672    4.2238 C.ar      1 <0>        -0.1229
     29 C23         6.2873   -2.5289    3.1029 C.ar      1 <0>        -0.0934
     30 H2          1.3002    1.4499   -0.4362 H         1 <0>         0.0774
     31 H3         -0.2907    1.5382   -1.2296 H         1 <0>         0.0720
     32 H4         -0.1722    1.6560    0.5425 H         1 <0>         0.0653
     33 H5         -1.8955    0.1155   -1.8798 H         1 <0>         0.4078
     34 H6         -3.7366   -1.7977   -0.9939 H         1 <0>         0.0737
     35 H7         -4.0246   -0.3229   -0.0398 H         1 <0>         0.0834
     36 H8         -4.4058    1.8185   -1.1824 H         1 <0>         0.0814
     37 H9         -3.1584    1.6251   -2.4410 H         1 <0>         0.0765
     38 H10        -4.8889    3.0655   -3.3589 H         1 <0>         0.0721
     39 H11        -5.0551    1.4745   -4.1455 H         1 <0>         0.0769
     40 H12        -6.6895    2.5723   -1.8211 H         1 <0>         0.0790
     41 H13        -7.2677    2.1916   -3.4580 H         1 <0>         0.0785
     42 H14        -5.4293   -2.4398   -1.3996 H         1 <0>         0.1224
     43 H15        -7.7861   -3.0792   -1.1271 H         1 <0>         0.1248
     44 H16        -9.5649   -1.4307   -1.5731 H         1 <0>         0.1248
     45 H17        -8.9727    0.8463   -2.2816 H         1 <0>         0.1240
     46 H18        -4.0204   -1.6265   -3.4311 H         1 <0>         0.3796
     47 H19         0.3547   -0.9323    1.7837 H         1 <0>         0.4113
     48 H20         2.3432   -1.6745    2.9895 H         1 <0>         0.1312
     49 H21         4.7186   -1.6455    1.0526 H         1 <0>         0.1374
     50 H22         3.1771   -2.2534    4.4439 H         1 <0>         0.1278
     51 H23         4.3990   -3.0456    6.4252 H         1 <0>         0.1265
     52 H24         6.8123   -3.5015    6.2881 H         1 <0>         0.1251
     53 H25         8.0200   -3.1691    4.1711 H         1 <0>         0.1271
     54 H26         6.8183   -2.3878    2.1731 H         1 <0>         0.1289
@<TRIPOS>BOND
     1    1    2 1
     2    1   30 1
     3    1   31 1
     4    1   32 1
     5    2    3 1
     6    2    4 1
     7    2   19 1
     8    4    5 2
     9    4    6 am
    10    6    7 1
    11    6   33 1
    12    7    8 1
    13    7   34 1
    14    7   35 1
    15    8   13 1
    16    8    9 1
    17    8   18 1
    18    9   10 1
    19    9   36 1
    20    9   37 1
    21   10   11 1
    22   10   38 1
    23   10   39 1
    24   11   12 1
    25   11   40 1
    26   11   41 1
    27   12   17 ar
    28   12   13 ar
    29   13   14 ar
    30   14   15 ar
    31   14   42 1
    32   15   16 ar
    33   15   43 1
    34   16   17 ar
    35   16   44 1
    36   17   45 1
    37   18   46 1
    38   19   20 am
    39   19   47 1
    40   20   21 2
    41   20   22 1
    42   22   23 2
    43   22   48 1
    44   23   24 1
    45   23   49 1
    46   24   29 ar
    47   24   25 ar
    48   25   26 ar
    49   25   50 1
    50   26   27 ar
    51   26   51 1
    52   27   28 ar
    53   27   52 1
    54   28   29 ar
    55   28   53 1
    56   29   54 1
@<TRIPOS>MOLECULE
ZINC67502810
   48    49     0     0     0
SMALL
USER_CHARGES

@<TRIPOS>ATOM
      1 C1         -0.0187    1.5258    0.0104 C.3       1 <0>        -0.1809
      2 C2          0.0021   -0.0041    0.0020 C.3       1 <0>         0.0698
      3 H1          0.5123   -0.3556   -0.8948 H         1 <0>         0.1040
      4 C3         -1.4117   -0.5257    0.0127 C.2       1 <0>         0.5166
      5 O1         -1.7902   -1.2332    0.9222 O.2       1 <0>        -0.5114
      6 N1         -2.2556   -0.2060   -0.9884 N.am      1 <0>        -0.7305
      7 C4         -3.6300   -0.7131   -0.9780 C.3       1 <0>         0.1416
      8 C5         -3.6886   -2.0948   -1.6616 C.3       1 <0>        -0.1344
      9 C6         -5.0364   -2.0840   -2.4249 C.3       1 <0>        -0.1257
     10 C7         -5.1234   -0.6274   -2.9442 C.3       1 <0>        -0.1246
     11 C8         -4.5422    0.2199   -1.7935 C.3       1 <0>        -0.1314
     12 N2          0.7126   -0.4907    1.1921 N.3       1 <0>        -0.6547
     13 C9          2.1624   -0.5325    0.9593 C.3       1 <0>         0.0994
     14 C10         2.8560   -1.0355    2.1991 C.ar      1 <0>        -0.1018
     15 C11         3.4482   -0.1397    3.0702 C.ar      1 <0>        -0.0660
     16 C12         4.0845   -0.5981    4.2073 C.ar      1 <0>        -0.1387
     17 C13         4.1291   -1.9587    4.4758 C.ar      1 <0>         0.1420
     18 C14         3.5342   -2.8558    3.6012 C.ar      1 <0>        -0.1878
     19 C15         2.8942   -2.3921    2.4668 C.ar      1 <0>        -0.0235
     20 Br1         2.0764   -3.6136    1.2772 Br        1 <0>        -0.0310
     21 O2          4.7551   -2.4116    5.5937 O.3       1 <0>        -0.3018
     22 C16         4.7619   -3.8247    5.8061 C.3       1 <0>         0.0555
     23 C17         5.5066   -4.1418    7.1045 C.3       1 <0>         0.0777
     24 O3          4.7865   -3.5965    8.2119 O.3       1 <0>        -0.5669
     25 H2          1.0039    1.9031    0.0027 H         1 <0>         0.0677
     26 H3         -0.5459    1.8868   -0.8726 H         1 <0>         0.0675
     27 H4         -0.5289    1.8773    0.9072 H         1 <0>         0.0650
     28 H5         -1.9529    0.3598   -1.7158 H         1 <0>         0.3966
     29 H6         -3.9925   -0.7872    0.0473 H         1 <0>         0.0904
     30 H7         -2.8574   -2.2120   -2.3568 H         1 <0>         0.0688
     31 H8         -3.6788   -2.8899   -0.9161 H         1 <0>         0.0705
     32 H9         -5.0156   -2.7896   -3.2554 H         1 <0>         0.0686
     33 H10        -5.8640   -2.3038   -1.7505 H         1 <0>         0.0695
     34 H11        -4.5239   -0.5076   -3.8466 H         1 <0>         0.0665
     35 H12        -6.1606   -0.3516   -3.1348 H         1 <0>         0.0684
     36 H13        -5.3480    0.5979   -1.1643 H         1 <0>         0.0743
     37 H14        -3.9623    1.0500   -2.1970 H         1 <0>         0.0700
     38 H15         0.4922    0.0720    2.0001 H         1 <0>         0.3499
     39 H16         2.3774   -1.2015    0.1260 H         1 <0>         0.0885
     40 H17         2.5215    0.4691    0.7231 H         1 <0>         0.0449
     41 H18         3.4134    0.9193    2.8612 H         1 <0>         0.1365
     42 H19         4.5474    0.1022    4.8868 H         1 <0>         0.1377
     43 H20         3.5679   -3.9153    3.8079 H         1 <0>         0.1368
     44 H21         3.7361   -4.1863    5.8780 H         1 <0>         0.0732
     45 H22         5.2623   -4.3152    4.9712 H         1 <0>         0.0794
     46 H23         5.5892   -5.2223    7.2214 H         1 <0>         0.0708
     47 H24         6.5037   -3.7030    7.0679 H         1 <0>         0.0592
     48 H25         5.2018   -3.7598    9.0698 H         1 <0>         0.3837
@<TRIPOS>BOND
     1    1    2 1
     2    1   25 1
     3    1   26 1
     4    1   27 1
     5    2    3 1
     6    2    4 1
     7    2   12 1
     8    4    5 2
     9    4    6 am
    10    6    7 1
    11    6   28 1
    12    7   11 1
    13    7    8 1
    14    7   29 1
    15    8    9 1
    16    8   30 1
    17    8   31 1
    18    9   10 1
    19    9   32 1
    20    9   33 1
    21   10   11 1
    22   10   34 1
    23   10   35 1
    24   11   36 1
    25   11   37 1
    26   12   13 1
    27   12   38 1
    28   13   14 1
    29   13   39 1
    30   13   40 1
    31   14   19 ar
    32   14   15 ar
    33   15   16 ar
    34   15   41 1
    35   16   17 ar
    36   16   42 1
    37   17   18 ar
    38   17   21 1
    39   18   19 ar
    40   18   43 1
    41   19   20 1
    42   21   22 1
    43   22   23 1
    44   22   44 1
    45   22   45 1
    46   23   24 1
    47   23   46 1
    48   23   47 1
    49   24   48 1
@<TRIPOS>MOLECULE
ZINC01171412
   47    49     0     0     0
SMALL
USER_CHARGES
2,4-dichloro-N-[3-[(3-methylbenzoyl)thiocarbamoylamino]phenyl]-benzamide
@<TRIPOS>ATOM
      1 C1         -1.4565    0.9198   -2.6503 C.3       1 <0>        -0.1188
      2 C2         -0.4427    1.7009   -1.8546 C.ar      1 <0>        -0.0878
      3 C3          0.4950    1.0333   -1.0864 C.ar      1 <0>        -0.0896
      4 C4          1.4325    1.7426   -0.3571 C.ar      1 <0>        -0.1192
      5 C5          1.4350    3.1220   -0.3872 C.ar      1 <0>        -0.0971
      6 C6          0.4886    3.8018   -1.1559 C.ar      1 <0>        -0.1325
      7 C7         -0.4548    3.0797   -1.8896 C.ar      1 <0>        -0.0543
      8 C8          0.4849    5.2790   -1.1926 C.2       1 <0>         0.5353
      9 O1         -0.3402    5.8681   -1.8627 O.2       1 <0>        -0.3995
     10 N1          1.3966    5.9731   -0.4829 N.am      1 <0>        -0.6395
     11 C9          1.3932    7.3204   -0.5164 C.2       1 <0>         0.5116
     12 S1          0.2308    8.1503   -1.4604 S.2       1 <0>        -0.4802
     13 N2          2.3049    8.0144    0.1932 N.pl3     1 <0>        -0.6176
     14 C10         2.3518    9.4091    0.0973 C.ar      1 <0>         0.1302
     15 C11         1.1749   10.1477    0.1187 C.ar      1 <0>        -0.0781
     16 C12         1.2204   11.5251    0.0244 C.ar      1 <0>        -0.0955
     17 C13         2.4354   12.1729   -0.0920 C.ar      1 <0>        -0.1282
     18 C14         3.6155   11.4403   -0.1145 C.ar      1 <0>         0.1433
     19 C15         3.5736   10.0568   -0.0137 C.ar      1 <0>        -0.1161
     20 N3          4.8448   12.0967   -0.2322 N.am      1 <0>        -0.6657
     21 C16         5.8439   11.5343   -0.9406 C.2       1 <0>         0.5551
     22 O2          5.6960   10.4312   -1.4300 O.2       1 <0>        -0.4903
     23 C17         7.1184   12.2578   -1.1224 C.ar      1 <0>        -0.1299
     24 C18         7.2916   13.5253   -0.5616 C.ar      1 <0>        -0.0604
     25 C19         8.4833   14.1957   -0.7347 C.ar      1 <0>        -0.1133
     26 C20         9.5093   13.6155   -1.4635 C.ar      1 <0>         0.0021
     27 C21         9.3453   12.3598   -2.0224 C.ar      1 <0>        -0.1123
     28 C22         8.1584   11.6750   -1.8516 C.ar      1 <0>         0.0273
     29 Cl1         7.9564   10.0970   -2.5464 Cl        1 <0>        -0.0130
     30 Cl2        11.0067   14.4676   -1.6769 Cl        1 <0>        -0.0429
     31 H1         -2.3441    0.7501   -2.0409 H         1 <0>         0.0758
     32 H2         -1.7305    1.4830   -3.5423 H         1 <0>         0.0721
     33 H3         -1.0282   -0.0388   -2.9431 H         1 <0>         0.0708
     34 H4          0.4977   -0.0463   -1.0595 H         1 <0>         0.1308
     35 H5          2.1643    1.2154    0.2369 H         1 <0>         0.1322
     36 H6          2.1676    3.6745    0.1823 H         1 <0>         0.1214
     37 H7         -1.1900    3.5995   -2.4860 H         1 <0>         0.1409
     38 H8          2.0551    5.5029    0.0519 H         1 <0>         0.4093
     39 H9          2.9285    7.5468    0.7705 H         1 <0>         0.4076
     40 H10         0.2237    9.6444    0.2096 H         1 <0>         0.1501
     41 H11         0.3043   12.0969    0.0413 H         1 <0>         0.1355
     42 H12         2.4675   13.2499   -0.1659 H         1 <0>         0.1296
     43 H13         4.4899    9.4853   -0.0258 H         1 <0>         0.1405
     44 H14         4.9783   12.9568    0.1959 H         1 <0>         0.4104
     45 H15         6.4933   13.9789    0.0070 H         1 <0>         0.1460
     46 H16         8.6180   15.1756   -0.3010 H         1 <0>         0.1501
     47 H17        10.1488   11.9129   -2.5890 H         1 <0>         0.1535
@<TRIPOS>BOND
     1    1    2 1
     2    1   31 1
     3    1   32 1
     4    1   33 1
     5    2    7 ar
     6    2    3 ar
     7    3    4 ar
     8    3   34 1
     9    4    5 ar
    10    4   35 1
    11    5    6 ar
    12    5   36 1
    13    6    7 ar
    14    6    8 1
    15    7   37 1
    16    8    9 2
    17    8   10 am
    18   10   11 1
    19   10   38 1
    20   11   12 2
    21   11   13 1
    22   13   14 1
    23   13   39 1
    24   14   19 ar
    25   14   15 ar
    26   15   16 ar
    27   15   40 1
    28   16   17 ar
    29   16   41 1
    30   17   18 ar
    31   17   42 1
    32   18   19 ar
    33   18   20 1
    34   19   43 1
    35   20   21 am
    36   20   44 1
    37   21   22 2
    38   21   23 1
    39   23   28 ar
    40   23   24 ar
    41   24   25 ar
    42   24   45 1
    43   25   26 ar
    44   25   46 1
    45   26   27 ar
    46   26   30 1
    47   27   28 ar
    48   27   47 1
    49   28   29 1
@<TRIPOS>MOLECULE
ZINC13959885
   50    53     0     0     0
SMALL
USER_CHARGES
3-amino-N-[2-(difluoromethoxy)-4-methyl-phenyl]-6-(difluoromethyl)-4-phenyl-thieno[5,4-b]pyridine-2-carboxamide
@<TRIPOS>ATOM
      1 C1         -1.7153    3.1117    4.7643 C.3       1 <0>        -0.1152
      2 C2         -0.5637    2.5390    3.9788 C.ar      1 <0>        -0.0659
      3 C3         -0.7909    1.5365    3.0538 C.ar      1 <0>        -0.1228
      4 C4          0.2619    1.0042    2.3340 C.ar      1 <0>        -0.0994
      5 C5          1.5490    1.4831    2.5313 C.ar      1 <0>         0.1333
      6 C6          1.7763    2.4967    3.4596 C.ar      1 <0>         0.0788
      7 C7          0.7161    3.0213    4.1808 C.ar      1 <0>        -0.1711
      8 O1          3.0357    2.9698    3.6576 O.3       1 <0>        -0.3242
      9 C8          3.1935    4.0095    4.6252 C.3       1 <0>         0.4140
     10 F1          2.4305    5.1191    4.2460 F         1 <0>        -0.1970
     11 F2          2.7628    3.5525    5.8753 F         1 <0>        -0.1965
     12 N1          2.6168    0.9486    1.7996 N.am      1 <0>        -0.6581
     13 C9          2.5418   -0.3080    1.3182 C.2       1 <0>         0.6208
     14 O2          1.5048   -0.9386    1.4208 O.2       1 <0>        -0.5254
     15 C10         3.6691   -0.8953    0.6926 C.2       1 <0>        -0.3226
     16 C11         3.7848   -2.1574    0.1496 C.2       1 <0>         0.2991
     17 C12         5.0533   -2.5375   -0.4467 C.ar      1 <0>        -0.1605
     18 C13         5.4118   -3.7716   -1.0684 C.ar      1 <0>         0.0740
     19 C14         6.6979   -3.9176   -1.5689 C.ar      1 <0>        -0.1488
     20 C15         7.6082   -2.8807   -1.4637 C.ar      1 <0>         0.1074
     21 N2          7.2673   -1.7436   -0.8878 N.ar      1 <0>        -0.4222
     22 C16         6.0622   -1.5506   -0.3955 C.ar      1 <0>         0.1297
     23 S1          5.2808   -0.1834    0.4254 S.3       1 <0>         0.1342
     24 C17         9.0017   -3.0520   -2.0114 C.3       1 <0>         0.3304
     25 F3          9.8958   -2.2809   -1.2609 F         1 <0>        -0.1801
     26 F4          9.3703   -4.3994   -1.9353 F         1 <0>        -0.1881
     27 C18         4.4300   -4.8757   -1.1762 C.ar      1 <0>        -0.0870
     28 C19         4.7318   -6.1341   -0.6562 C.ar      1 <0>        -0.0902
     29 C20         3.8109   -7.1570   -0.7546 C.ar      1 <0>        -0.1188
     30 C21         2.5950   -6.9393   -1.3776 C.ar      1 <0>        -0.0993
     31 C22         2.2923   -5.6947   -1.9004 C.ar      1 <0>        -0.1227
     32 C23         3.2027   -4.6624   -1.8031 C.ar      1 <0>        -0.0853
     33 N3          2.7143   -3.0415    0.1692 N.pl3     1 <0>        -0.8325
     34 H1         -2.1426    3.9542    4.2206 H         1 <0>         0.0740
     35 H2         -2.4773    2.3448    4.9033 H         1 <0>         0.0705
     36 H3         -1.3588    3.4502    5.7371 H         1 <0>         0.0672
     37 H4         -1.7930    1.1658    2.8964 H         1 <0>         0.1312
     38 H5          0.0821    0.2187    1.6149 H         1 <0>         0.1662
     39 H6          0.8894    3.8073    4.9009 H         1 <0>         0.1374
     40 H7          4.2441    4.2941    4.6846 H         1 <0>         0.1837
     41 H8          3.4104    1.4828    1.6394 H         1 <0>         0.4135
     42 H9          6.9891   -4.8434   -2.0426 H         1 <0>         0.1577
     43 H10         9.0258   -2.7269   -3.0515 H         1 <0>         0.1393
     44 H11         5.6826   -6.3065   -0.1739 H         1 <0>         0.1296
     45 H12         4.0416   -8.1307   -0.3484 H         1 <0>         0.1314
     46 H13         1.8791   -7.7441   -1.4559 H         1 <0>         0.1293
     47 H14         1.3413   -5.5307   -2.3853 H         1 <0>         0.1312
     48 H15         2.9651   -3.6911   -2.2112 H         1 <0>         0.1281
     49 H16         1.8058   -2.7041    0.1278 H         1 <0>         0.4172
     50 H17         2.8749   -3.9965    0.2242 H         1 <0>         0.4046
@<TRIPOS>BOND
     1    1    2 1
     2    1   34 1
     3    1   35 1
     4    1   36 1
     5    2    7 ar
     6    2    3 ar
     7    3    4 ar
     8    3   37 1
     9    4    5 ar
    10    4   38 1
    11    5    6 ar
    12    5   12 1
    13    6    7 ar
    14    6    8 1
    15    7   39 1
    16    8    9 1
    17    9   10 1
    18    9   11 1
    19    9   40 1
    20   12   13 am
    21   12   41 1
    22   13   14 2
    23   13   15 1
    24   15   23 1
    25   15   16 2
    26   16   17 1
    27   16   33 1
    28   17   22 ar
    29   17   18 ar
    30   18   19 ar
    31   18   27 1
    32   19   20 ar
    33   19   42 1
    34   20   21 ar
    35   20   24 1
    36   21   22 ar
    37   22   23 1
    38   24   25 1
    39   24   26 1
    40   24   43 1
    41   27   32 ar
    42   27   28 ar
    43   28   29 ar
    44   28   44 1
    45   29   30 ar
    46   29   45 1
    47   30   31 ar
    48   30   46 1
    49   31   32 ar
    50   31   47 1
    51   32   48 1
    52   33   49 1
    53   33   50 1
@<TRIPOS>MOLECULE
ZINC24365204
   55    59     0     0     0
SMALL
USER_CHARGES
(2S)-N-(1-adamantyl)-2-[[4-amino-5-(2-bromophenyl)-1,2,4-triazol-3-yl]sulfanyl]propanamide
@<TRIPOS>ATOM
      1 C1         -3.3201    7.6855   -0.1444 C.3       1 <0>        -0.1488
      2 C2         -2.0896    7.2600   -0.9480 C.3       1 <0>        -0.1106
      3 H1         -1.2291    7.5826   -0.3434 H         1 <0>         0.1240
      4 C3         -1.9867    5.7565   -0.9508 C.2       1 <0>         0.5363
      5 O1         -2.3684    5.1244   -1.9129 O.2       1 <0>        -0.5242
      6 N1         -1.4705    5.1144    0.1158 N.am      1 <0>        -0.7273
      7 C4         -1.3704    3.6528    0.1131 C.3       1 <0>         0.1896
      8 C5         -0.4860    3.2043   -1.0521 C.3       1 <0>        -0.1235
      9 C6         -0.3815    1.6779   -1.0549 C.3       1 <0>        -0.0824
     10 C7          0.2344    1.2064    0.2639 C.3       1 <0>        -0.1123
     11 C8         -0.6500    1.6549    1.4290 C.3       1 <0>        -0.0806
     12 C9         -0.7545    3.1813    1.4318 C.3       1 <0>        -0.1151
     13 C10        -2.0460    1.0484    1.2724 C.3       1 <0>        -0.1122
     14 C11        -2.6619    1.5199   -0.0464 C.3       1 <0>        -0.0826
     15 C12        -1.7774    1.0715   -1.2115 C.3       1 <0>        -0.1102
     16 C13        -2.7664    3.0464   -0.0435 C.3       1 <0>        -0.1233
     17 S1         -2.2440    7.8574   -2.6496 S.3       1 <0>         0.0888
     18 C14        -2.1926    9.5962   -2.3693 C.2       1 <0>         0.1221
     19 N2         -2.0723   10.1951   -1.2055 N.2       1 <0>        -0.2763
     20 N3         -2.0688   11.4704   -1.3638 N.2       1 <0>        -0.2303
     21 C15        -2.1866   11.7642   -2.6377 C.2       1 <0>         0.1839
     22 N4         -2.2644   10.5727   -3.3214 N.pl3     1 <0>        -0.2027
     23 N5         -2.3898   10.4021   -4.6709 N.3       1 <0>        -0.7632
     24 C16        -2.2229   13.1193   -3.2272 C.ar      1 <0>         0.0130
     25 C17        -3.2004   13.4489   -4.1675 C.ar      1 <0>        -0.1028
     26 C18        -3.2287   14.7152   -4.7138 C.ar      1 <0>        -0.1002
     27 C19        -2.2912   15.6586   -4.3314 C.ar      1 <0>        -0.0987
     28 C20        -1.3196   15.3395   -3.4002 C.ar      1 <0>        -0.0881
     29 C21        -1.2830   14.0773   -2.8415 C.ar      1 <0>        -0.0582
     30 Br1         0.0412   13.6448   -1.5626 Br        1 <0>        -0.0207
     31 H2         -3.3952    8.7829   -0.1424 H         1 <0>         0.0918
     32 H3         -3.2262    7.3225    0.8897 H         1 <0>         0.0715
     33 H4         -4.2236    7.2570   -0.6028 H         1 <0>         0.0676
     34 H5         -1.1243    5.6878    0.9884 H         1 <0>         0.4223
     35 H6         -0.9289    3.5433   -2.0002 H         1 <0>         0.0856
     36 H7          0.5176    3.6403   -0.9397 H         1 <0>         0.0598
     37 H8          0.2544    1.3554   -1.8925 H         1 <0>         0.0722
     38 H9          0.3095    0.1090    0.2618 H         1 <0>         0.0652
     39 H10         1.2380    1.6423    0.3765 H         1 <0>         0.0627
     40 H11        -0.2071    1.3160    2.3771 H         1 <0>         0.0754
     41 H12         0.2491    3.6173    1.5443 H         1 <0>         0.0696
     42 H13        -1.3904    3.5037    2.2695 H         1 <0>         0.0697
     43 H14        -1.9708   -0.0490    1.2703 H         1 <0>         0.0651
     44 H15        -2.6819    1.3708    2.1100 H         1 <0>         0.0627
     45 H16        -3.6655    1.0838   -0.1590 H         1 <0>         0.0723
     46 H17        -2.2202    1.4106   -2.1596 H         1 <0>         0.0649
     47 H18        -1.7023   -0.0259   -1.2136 H         1 <0>         0.0629
     48 H19        -3.4023    3.3688    0.7942 H         1 <0>         0.0599
     49 H20        -3.2092    3.3855   -0.9916 H         1 <0>         0.0857
     50 H21        -2.4368   11.2785   -5.3340 H         1 <0>         0.4476
     51 H22        -2.4438    9.3884   -5.0945 H         1 <0>         0.4502
     52 H23        -3.9328   12.7139   -4.4671 H         1 <0>         0.1334
     53 H24        -3.9846   14.9712   -5.4415 H         1 <0>         0.1379
     54 H25        -2.3182   16.6486   -4.7624 H         1 <0>         0.1388
     55 H26        -0.5907   16.0802   -3.1064 H         1 <0>         0.1417
@<TRIPOS>BOND
     1    1    2 1
     2    1   31 1
     3    1   32 1
     4    1   33 1
     5    2    3 1
     6    2    4 1
     7    2   17 1
     8    4    5 2
     9    4    6 am
    10    6    7 1
    11    6   34 1
    12    7   12 1
    13    7   16 1
    14    7    8 1
    15    8    9 1
    16    8   35 1
    17    8   36 1
    18    9   15 1
    19    9   10 1
    20    9   37 1
    21   10   11 1
    22   10   38 1
    23   10   39 1
    24   11   12 1
    25   11   13 1
    26   11   40 1
    27   12   41 1
    28   12   42 1
    29   13   14 1
    30   13   43 1
    31   13   44 1
    32   14   15 1
    33   14   16 1
    34   14   45 1
    35   15   46 1
    36   15   47 1
    37   16   48 1
    38   16   49 1
    39   17   18 1
    40   18   22 1
    41   18   19 2
    42   19   20 1
    43   20   21 2
    44   21   22 1
    45   21   24 1
    46   22   23 1
    47   23   50 1
    48   23   51 1
    49   24   29 ar
    50   24   25 ar
    51   25   26 ar
    52   25   52 1
    53   26   27 ar
    54   26   53 1
    55   27   28 ar
    56   27   54 1
    57   28   29 ar
    58   28   55 1
    59   29   30 1
@<TRIPOS>MOLECULE
ZINC02231145
   43    46     0     0     0
SMALL
USER_CHARGES

@<TRIPOS>ATOM
      1 C1         -0.1538    1.3462   -0.8008 C.ar      1 <0>        -0.1105
      2 C2          0.7503    2.0270   -1.5977 C.ar      1 <0>        -0.0816
      3 C3          1.6479    1.3310   -2.3866 C.ar      1 <0>        -0.0958
      4 C4          1.6478   -0.0501   -2.3837 C.ar      1 <0>        -0.0405
      5 C5          0.7381   -0.7430   -1.5813 C.ar      1 <0>        -0.1160
      6 C6         -0.1653   -0.0327   -0.7878 C.ar      1 <0>        -0.0842
      7 C7          0.7312   -2.2201   -1.5729 C.2       1 <0>         0.5209
      8 O1          1.5181   -2.8354   -2.2651 O.2       1 <0>        -0.3672
      9 N1         -0.1478   -2.8855   -0.7975 N.am      1 <0>        -0.6373
     10 C8         -0.1541   -4.2332   -0.7898 C.2       1 <0>         0.5105
     11 S1          0.9544   -5.1000   -1.7649 S.2       1 <0>        -0.4720
     12 N2         -1.0331   -4.8985   -0.0145 N.pl3     1 <0>        -0.6206
     13 C9         -1.1002   -6.2967   -0.0727 C.ar      1 <0>         0.1052
     14 C10         0.0692   -7.0486   -0.0573 C.ar      1 <0>        -0.0268
     15 C11         0.0116   -8.4271   -0.1143 C.ar      1 <0>        -0.1368
     16 C12        -1.2138   -9.0704   -0.1878 C.ar      1 <0>         0.1536
     17 C13        -2.3955   -8.3198   -0.2038 C.ar      1 <0>        -0.0515
     18 C14        -2.3314   -6.9274   -0.1398 C.ar      1 <0>        -0.0496
     19 C15        -3.7050   -8.9993   -0.2820 C.2       1 <0>         0.2006
     20 N3         -4.9089   -8.4700   -0.3136 N.2       1 <0>        -0.5040
     21 C16        -6.0273   -9.2179   -0.3870 C.ar      1 <0>         0.0773
     22 C17        -7.3722   -8.7784   -0.4272 C.ar      1 <0>        -0.0614
     23 C18        -8.3950   -9.6712   -0.5009 C.ar      1 <0>        -0.1123
     24 C19        -8.1669  -11.0398   -0.5395 C.ar      1 <0>        -0.0934
     25 C20        -6.8678  -11.5113   -0.5028 C.ar      1 <0>        -0.0672
     26 C21        -5.8273  -10.6181   -0.4284 C.ar      1 <0>        -0.1574
     27 S2         -4.0568  -10.7497   -0.3659 S.3       1 <0>         0.0409
     28 O2         -1.2682  -10.4266   -0.2447 O.3       1 <0>        -0.4840
     29 Br1         2.8753   -1.0005   -3.4635 Br        1 <0>         0.0023
     30 H1         -0.8491    1.8964   -0.1842 H         1 <0>         0.1391
     31 H2          0.7546    3.1070   -1.6036 H         1 <0>         0.1409
     32 H3          2.3501    1.8685   -3.0065 H         1 <0>         0.1442
     33 H4         -0.8713   -0.5621   -0.1652 H         1 <0>         0.1302
     34 H5         -0.7759   -2.3944   -0.2451 H         1 <0>         0.4083
     35 H6         -1.6193   -4.4094    0.5838 H         1 <0>         0.4096
     36 H7          1.0268   -6.5524   -0.0008 H         1 <0>         0.1576
     37 H8          0.9237   -9.0054   -0.1019 H         1 <0>         0.1482
     38 H9         -3.2394   -6.3428   -0.1469 H         1 <0>         0.1433
     39 H10        -7.5886   -7.7207   -0.3986 H         1 <0>         0.1316
     40 H11        -9.4110   -9.3061   -0.5297 H         1 <0>         0.1345
     41 H12        -8.9960  -11.7294   -0.5973 H         1 <0>         0.1396
     42 H13        -6.6729  -12.5732   -0.5317 H         1 <0>         0.1348
     43 H14        -1.3181  -10.8549    0.6208 H         1 <0>         0.3972
@<TRIPOS>BOND
     1    1    6 ar
     2    1    2 ar
     3    1   30 1
     4    2    3 ar
     5    2   31 1
     6    3    4 ar
     7    3   32 1
     8    4    5 ar
     9    4   29 1
    10    5    6 ar
    11    5    7 1
    12    6   33 1
    13    7    8 2
    14    7    9 am
    15    9   10 1
    16    9   34 1
    17   10   11 2
    18   10   12 1
    19   12   13 1
    20   12   35 1
    21   13   18 ar
    22   13   14 ar
    23   14   15 ar
    24   14   36 1
    25   15   16 ar
    26   15   37 1
    27   16   17 ar
    28   16   28 1
    29   17   18 ar
    30   17   19 1
    31   18   38 1
    32   19   27 1
    33   19   20 2
    34   20   21 1
    35   21   26 ar
    36   21   22 ar
    37   22   23 ar
    38   22   39 1
    39   23   24 ar
    40   23   40 1
    41   24   25 ar
    42   24   41 1
    43   25   26 ar
    44   25   42 1
    45   26   27 1
    46   28   43 1
