@<TRIPOS>MOLECULE
3CJO-K30
 62 65 0 0 0
SMALL
SF_CHARGES


@<TRIPOS>ATOM
1    C        12.6510   21.8440  109.7570  C.3        1 SUBUNIT      0.1443
2    C        17.9100   18.4110  110.2190  C.3        1 SUBUNIT      0.1244
3    C        18.1600   13.0720  113.8660  C.2        1 SUBUNIT     -0.0868
4    C        18.7830   14.1930  113.3090  C.2        1 SUBUNIT     -0.0903
5    C        17.3260   12.3420  113.0510  C.2        1 SUBUNIT     -0.0903
6    C        18.5390   14.4640  111.9160  C.2        1 SUBUNIT     -0.0943
7    C        17.0570   12.6660  111.6550  C.2        1 SUBUNIT     -0.0943
8    C        22.5730   15.3840  105.3700  C.2        1 SUBUNIT     -0.1050
9    C        22.5850   14.2540  106.1840  C.2        1 SUBUNIT     -0.1069
10   C        20.5240   16.1590  106.4350  C.2        1 SUBUNIT     -0.1133
11   C        15.2570   19.3220  111.2690  C.3        1 SUBUNIT     -0.0796
12   C        13.9770   20.1730  111.1400  C.3        1 SUBUNIT      0.1613
13   C        18.9250   13.8490  108.9320  C.2        1 SUBUNIT     -0.1260
14   C        13.9780   20.0640  108.6330  C.3        1 SUBUNIT      0.1426
15   C        18.4480   15.9770  108.1590  C.3        1 SUBUNIT      0.1716
16   C        16.1590   13.8360  108.8560  C.3        1 SUBUNIT      0.1849
17   C        17.6920   13.7260  111.0500  C.2        1 SUBUNIT     -0.0511
18   C        21.5310   16.3250  105.5060  C.2        1 SUBUNIT      0.1432
19   C        21.5310   14.0200  107.0960  C.2        1 SUBUNIT      0.1387
20   C        20.4900   14.9560  107.2490  C.2        1 SUBUNIT     -0.0262
21   C        15.4460   18.5370  109.9370  C.3        1 SUBUNIT      0.1735
22   C        19.3600   14.8260  108.1140  C.2        1 SUBUNIT     -0.0283
23   C        15.3770   19.4550  108.7070  C.3        1 SUBUNIT      0.2053
24   C        16.6340   16.4090  110.0230  C.2        1 SUBUNIT      0.8221
25   C        17.5120   14.1540  109.4980  C.3        1 SUBUNIT      0.2707
26   N        13.9120   20.9790  109.8360  N.4        1 SUBUNIT     -0.3259
27   N        17.5520   15.6400  109.2820  N.am       1 SUBUNIT     -0.4876
28   N        16.6500   17.7640  109.9710  N.am       1 SUBUNIT     -0.4703
29   O        15.9930   12.4730  108.6590  O.3        1 SUBUNIT     -0.5480
30   O        15.6870   15.8390  110.6690  O.2        1 SUBUNIT     -0.5527
31   F        21.5750   17.4130  104.7590  F          1 SUBUNIT     -0.1885
32   F        21.6310   12.8900  107.7890  F          1 SUBUNIT     -0.1890
33   F        16.2400   20.4850  108.9080  F          1 SUBUNIT     -0.2365
34   H        11.7480   21.2265  109.8044  H          1 SUBUNIT      0.0435
35   H        12.6222   22.4111  108.8207  H          1 SUBUNIT      0.0435
36   H        12.6134   22.5594  110.5851  H          1 SUBUNIT      0.0435
37   H        18.1213   19.1650  109.4536  H          1 SUBUNIT      0.0387
38   H        18.7310   17.6865  110.2134  H          1 SUBUNIT      0.0387
39   H        17.9093   18.9112  111.1931  H          1 SUBUNIT      0.0387
40   H        18.3211   12.7849  114.8904  H          1 SUBUNIT      0.1095
41   H        19.4177   14.8198  113.9107  H          1 SUBUNIT      0.1087
42   H        16.8574   11.4839  113.5003  H          1 SUBUNIT      0.1087
43   H        19.0455   15.3081  111.4816  H          1 SUBUNIT      0.1080
44   H        16.3623   12.0904  111.0685  H          1 SUBUNIT      0.1080
45   H        23.3548   15.5320  104.6456  H          1 SUBUNIT      0.1079
46   H        23.4043   13.5601  106.1125  H          1 SUBUNIT      0.1080
47   H        19.7811   16.9308  106.5358  H          1 SUBUNIT      0.1082
48   H        16.1188   19.9744  111.4442  H          1 SUBUNIT      0.0500
49   H        15.1529   18.6217  112.1043  H          1 SUBUNIT      0.0500
50   H        13.1096   19.5058  111.1780  H          1 SUBUNIT      0.0363
51   H        13.9372   20.8725  111.9815  H          1 SUBUNIT      0.0363
52   H        19.5378   12.9860  109.1258  H          1 SUBUNIT      0.0963
53   H        13.8479   20.6329  107.7064  H          1 SUBUNIT      0.0383
54   H        13.2095   19.2865  108.6955  H          1 SUBUNIT      0.0383
55   H        18.9951   16.9051  108.3548  H          1 SUBUNIT      0.0358
56   H        17.8888   16.0729  107.2224  H          1 SUBUNIT      0.0358
57   H        15.3448   14.1796  109.5026  H          1 SUBUNIT      0.0366
58   H        16.0810   14.3246  107.8791  H          1 SUBUNIT      0.0366
59   H        14.6440   17.7991  109.8310  H          1 SUBUNIT      0.0387
60   H        15.6632   18.9335  107.7877  H          1 SUBUNIT      0.0367
61   H        14.7141   21.5894  109.8252  H          1 SUBUNIT      0.3328
62   H        16.8247   12.0985  108.3596  H          1 SUBUNIT      0.3960
@<TRIPOS>BOND
     1    1   26 1
     2    2   28 1
     3    3    4 2
     4    3    5 1
     5    4    6 1
     6    5    7 2
     7    6   17 2
     8    7   17 1
     9    8    9 2
    10    8   18 1
    11    9   19 1
    12   10   18 2
    13   10   20 1
    14   11   12 1
    15   11   21 1
    16   12   26 1
    17   13   22 2
    18   13   25 1
    19   14   23 1
    20   14   26 1
    21   15   22 1
    22   15   27 1
    23   16   25 1
    24   16   29 1
    25   17   25 1
    26   18   31 1
    27   19   20 2
    28   19   32 1
    29   20   22 1
    30   21   23 1
    31   21   28 1
    32   23   33 1
    33   24   27 1
    34   24   28 1
    35   24   30 2
    36   25   27 1
    37    1   34 1
    38    1   35 1
    39    1   36 1
    40    2   37 1
    41    2   38 1
    42    2   39 1
    43    3   40 1
    44    4   41 1
    45    5   42 1
    46    6   43 1
    47    7   44 1
    48    8   45 1
    49    9   46 1
    50   10   47 1
    51   11   48 1
    52   11   49 1
    53   12   50 1
    54   12   51 1
    55   13   52 1
    56   14   53 1
    57   14   54 1
    58   15   55 1
    59   15   56 1
    60   16   57 1
    61   16   58 1
    62   21   59 1
    63   23   60 1
    64   26   61 1
    65   29   62 1
