@<TRIPOS>MOLECULE
CHEMBL365298
   82    85     0     0     0
SMALL
USER_CHARGES

@<TRIPOS>ATOM
      1 C1          1.7903   -3.8086   -2.7886 C.3       1 <0>        -0.1840
      2 C2          0.7489   -4.8088   -2.2824 C.3       1 <0>         0.0050
      3 C3         -0.3942   -4.0634   -1.6431 C.2       1 <0>         0.5048
      4 O1         -0.6671   -4.2559   -0.4772 O.2       1 <0>        -0.5187
      5 N1         -1.1134   -3.1830   -2.3671 N.am      1 <0>        -0.6831
      6 C4         -2.2247   -2.4585   -1.7456 C.3       1 <0>         0.1423
      7 H1         -2.7198   -3.1048   -1.0208 H         1 <0>         0.1127
      8 C5         -3.2116   -2.0459   -2.8072 C.2       1 <0>         0.5371
      9 O2         -2.8156   -1.6709   -3.8904 O.2       1 <0>        -0.4960
     10 N2         -4.5343   -2.0936   -2.5528 N.am      1 <0>        -0.5946
     11 C6         -5.1463   -2.4213   -1.2568 C.3       1 <0>         0.0637
     12 C7         -6.6761   -2.3248   -1.4351 C.3       1 <0>         0.0801
     13 H2         -7.1036   -3.3070   -1.6367 H         1 <0>         0.0989
     14 C8         -6.8242   -1.3976   -2.6702 C.3       1 <0>        -0.1165
     15 C9         -5.6069   -1.8196   -3.5263 C.3       1 <0>         0.1194
     16 H3         -5.8405   -2.7187   -4.0965 H         1 <0>         0.1053
     17 C10        -5.2023   -0.7008   -4.4514 C.2       1 <0>         0.5161
     18 O3         -4.3587    0.0983   -4.1039 O.2       1 <0>        -0.5006
     19 N3         -5.7780   -0.5882   -5.6648 N.am      1 <0>        -0.7198
     20 C11        -5.3847    0.4994   -6.5641 C.3       1 <0>         0.1921
     21 C12        -6.5410    0.8123   -7.5117 C.3       1 <0>        -0.1264
     22 C13        -6.0399    1.7927   -8.5788 C.3       1 <0>        -0.1166
     23 C14        -5.0671    1.0521   -9.4942 C.3       1 <0>        -0.0858
     24 C15        -4.0141    0.3422   -8.6842 C.ar      1 <0>        -0.0656
     25 C16        -4.1616    0.0850   -7.3394 C.ar      1 <0>        -0.1044
     26 C17        -3.1548   -0.5800   -6.6520 C.ar      1 <0>        -0.1102
     27 C18        -2.0072   -0.9815   -7.3045 C.ar      1 <0>        -0.1301
     28 C19        -1.8575   -0.7198   -8.6535 C.ar      1 <0>        -0.1163
     29 C20        -2.8575   -0.0610   -9.3387 C.ar      1 <0>        -0.1306
     30 O4         -7.2835   -1.7381   -0.2822 O.3       1 <0>        -0.2946
     31 C21        -7.5682   -2.5686    0.7551 C.ar      1 <0>         0.1209
     32 C22        -8.2318   -2.0825    1.8723 C.ar      1 <0>        -0.1456
     33 C23        -8.5206   -2.9288    2.9253 C.ar      1 <0>        -0.0769
     34 C24        -8.1484   -4.2592    2.8666 C.ar      1 <0>        -0.1518
     35 C25        -7.4865   -4.7459    1.7545 C.ar      1 <0>        -0.0804
     36 C26        -7.2010   -3.9051    0.6963 C.ar      1 <0>        -0.2108
     37 C27        -1.6886   -1.2134   -1.0362 C.3       1 <0>        -0.0664
     38 C28        -0.8836   -0.3692   -2.0262 C.3       1 <0>        -0.1472
     39 C29        -2.8597   -0.3893   -0.4975 C.3       1 <0>        -0.1563
     40 C30        -0.7862   -1.6367    0.1247 C.3       1 <0>        -0.1315
     41 N4          1.3672   -5.7002   -1.2919 N.4       1 <0>        -0.4942
     42 C31         2.4024   -6.5134   -1.9437 C.3       1 <0>        -0.0503
     43 H4          2.6171   -4.3477   -3.2510 H         1 <0>         0.1000
     44 H5          1.3315   -3.1472   -3.5236 H         1 <0>         0.1118
     45 H6          2.1640   -3.2184   -1.9519 H         1 <0>         0.0915
     46 H7          0.3752   -5.3990   -3.1191 H         1 <0>         0.1666
     47 H8         -0.8952   -3.0291   -3.2996 H         1 <0>         0.4177
     48 H9         -4.8705   -3.4339   -0.9621 H         1 <0>         0.0815
     49 H10        -4.8156   -1.7098   -0.5002 H         1 <0>         0.0982
     50 H11        -7.7595   -1.5923   -3.1950 H         1 <0>         0.1088
     51 H12        -6.7505   -0.3488   -2.3825 H         1 <0>         0.1024
     52 H13        -6.4527   -1.2273   -5.9427 H         1 <0>         0.4010
     53 H14        -5.1533    1.3868   -5.9750 H         1 <0>         0.0983
     54 H15        -6.8835   -0.1060   -7.9887 H         1 <0>         0.0729
     55 H16        -7.3608    1.2646   -6.9536 H         1 <0>         0.0768
     56 H17        -6.8831    2.1631   -9.1619 H         1 <0>         0.0774
     57 H18        -5.5294    2.6278   -8.0993 H         1 <0>         0.0699
     58 H19        -5.6172    0.3217  -10.0876 H         1 <0>         0.0782
     59 H20        -4.5860    1.7673  -10.1613 H         1 <0>         0.0779
     60 H21        -3.2707   -0.7843   -5.5979 H         1 <0>         0.1613
     61 H22        -1.2286   -1.4981   -6.7631 H         1 <0>         0.1118
     62 H23        -0.9606   -1.0297   -9.1692 H         1 <0>         0.1175
     63 H24        -2.7399    0.1429  -10.3927 H         1 <0>         0.1201
     64 H25        -8.5221   -1.0433    1.9189 H         1 <0>         0.1332
     65 H26        -9.0371   -2.5509    3.7952 H         1 <0>         0.1330
     66 H27        -8.3747   -4.9191    3.6910 H         1 <0>         0.1266
     67 H28        -7.1966   -5.7854    1.7113 H         1 <0>         0.1251
     68 H29        -6.6879   -4.2868   -0.1741 H         1 <0>         0.1243
     69 H30        -1.5264   -0.0676   -2.8532 H         1 <0>         0.0775
     70 H31        -0.5016    0.5178   -1.5208 H         1 <0>         0.0618
     71 H32        -0.0493   -0.9563   -2.4100 H         1 <0>         0.0486
     72 H33        -3.3710   -0.9520    0.2836 H         1 <0>         0.0609
     73 H34        -2.4853    0.5474   -0.0846 H         1 <0>         0.0713
     74 H35        -3.5571   -0.1763   -1.3076 H         1 <0>         0.0703
     75 H36         0.0481   -2.2239   -0.2591 H         1 <0>         0.0471
     76 H37        -0.4042   -0.7498    0.6301 H         1 <0>         0.0612
     77 H38        -1.3597   -2.2382    0.8300 H         1 <0>         0.0638
     78 H39         1.7855   -5.1486   -0.5578 H         1 <0>         0.4350
     79 H40         1.9506   -7.1093   -2.7367 H         1 <0>         0.1265
     80 H41         3.1637   -5.8596   -2.3693 H         1 <0>         0.1276
     81 H42         2.8612   -7.1748   -1.2087 H         1 <0>         0.1337
     82 H43         0.6625   -6.3054   -0.8979 H         1 <0>         0.4374
@<TRIPOS>BOND
     1    1    2 1
     2    1   43 1
     3    1   44 1
     4    1   45 1
     5    2    3 1
     6    2   41 1
     7    2   46 1
     8    3    4 2
     9    3    5 am
    10    5    6 1
    11    5   47 1
    12    6    7 1
    13    6    8 1
    14    6   37 1
    15    8    9 2
    16    8   10 am
    17   10   15 1
    18   10   11 1
    19   11   12 1
    20   11   48 1
    21   11   49 1
    22   12   13 1
    23   12   14 1
    24   12   30 1
    25   14   15 1
    26   14   50 1
    27   14   51 1
    28   15   16 1
    29   15   17 1
    30   17   18 2
    31   17   19 am
    32   19   20 1
    33   19   52 1
    34   20   25 1
    35   20   21 1
    36   20   53 1
    37   21   22 1
    38   21   54 1
    39   21   55 1
    40   22   23 1
    41   22   56 1
    42   22   57 1
    43   23   24 1
    44   23   58 1
    45   23   59 1
    46   24   29 ar
    47   24   25 ar
    48   25   26 ar
    49   26   27 ar
    50   26   60 1
    51   27   28 ar
    52   27   61 1
    53   28   29 ar
    54   28   62 1
    55   29   63 1
    56   30   31 1
    57   31   36 ar
    58   31   32 ar
    59   32   33 ar
    60   32   64 1
    61   33   34 ar
    62   33   65 1
    63   34   35 ar
    64   34   66 1
    65   35   36 ar
    66   35   67 1
    67   36   68 1
    68   37   38 1
    69   37   39 1
    70   37   40 1
    71   38   69 1
    72   38   70 1
    73   38   71 1
    74   39   72 1
    75   39   73 1
    76   39   74 1
    77   40   75 1
    78   40   76 1
    79   40   77 1
    80   41   42 1
    81   41   78 1
    82   41   82 1
    83   42   79 1
    84   42   80 1
    85   42   81 1
@<TRIPOS>MOLECULE
CHEMBL365298__1
   82    85     0     0     0
SMALL
USER_CHARGES

@<TRIPOS>ATOM
      1 C1          1.3109   -3.8202   -3.7427 C.3       1 <0>        -0.1840
      2 C2          0.3257   -4.8306   -3.1516 C.3       1 <0>         0.0054
      3 C3         -0.7414   -4.0988   -2.3791 C.2       1 <0>         0.5049
      4 O1         -0.8904   -4.3168   -1.1954 O.2       1 <0>        -0.5189
      5 N1         -1.5302   -3.2020   -3.0036 N.am      1 <0>        -0.6835
      6 C4         -2.5676   -2.4906   -2.2527 C.3       1 <0>         0.1418
      7 H1         -2.9855   -3.1524   -1.4941 H         1 <0>         0.1131
      8 C5         -3.6596   -2.0539   -3.1949 C.2       1 <0>         0.5359
      9 O2         -3.3788   -1.6547   -4.3052 O.2       1 <0>        -0.4975
     10 N2         -4.9483   -2.1068   -2.8038 N.am      1 <0>        -0.5947
     11 C6         -5.4207   -2.4476   -1.4539 C.3       1 <0>         0.0646
     12 C7         -6.9609   -2.3529   -1.4700 C.3       1 <0>         0.0797
     13 H2         -7.4059   -3.3342   -1.6348 H         1 <0>         0.0999
     14 C8         -7.2389   -1.4149   -2.6743 C.3       1 <0>        -0.1183
     15 C9         -6.1174   -1.8265   -3.6570 C.3       1 <0>         0.1195
     16 H3         -6.4083   -2.7209   -4.2079 H         1 <0>         0.1040
     17 C10        -5.8134   -0.6985   -4.6091 C.2       1 <0>         0.5186
     18 O3         -4.9821    0.1347   -4.3165 O.2       1 <0>        -0.5008
     19 N3         -6.4654   -0.6156   -5.7857 N.am      1 <0>        -0.7194
     20 C11        -6.1700    0.4809   -6.7112 C.3       1 <0>         0.1938
     21 C12        -6.4922    0.0374   -8.1368 C.3       1 <0>        -0.1250
     22 C13        -6.3861    1.2579   -9.0587 C.3       1 <0>        -0.1161
     23 C14        -7.5473    2.1997   -8.7461 C.3       1 <0>        -0.0851
     24 C15        -7.6208    2.4769   -7.2674 C.ar      1 <0>        -0.0674
     25 C16        -6.9915    1.6854   -6.3327 C.ar      1 <0>        -0.0991
     26 C17        -7.1047    1.9927   -4.9832 C.ar      1 <0>        -0.1066
     27 C18        -7.8392    3.0861   -4.5722 C.ar      1 <0>        -0.1275
     28 C19        -8.4677    3.8828   -5.5106 C.ar      1 <0>        -0.1118
     29 C20        -8.3580    3.5780   -6.8518 C.ar      1 <0>        -0.1246
     30 O4         -7.4449   -1.7780   -0.2546 O.3       1 <0>        -0.2943
     31 C21        -7.7138   -2.6321    0.7677 C.ar      1 <0>         0.1207
     32 C22        -8.2956   -2.1579    1.9345 C.ar      1 <0>        -0.1455
     33 C23        -8.5685   -3.0282    2.9720 C.ar      1 <0>        -0.0770
     34 C24        -8.2617   -4.3708    2.8486 C.ar      1 <0>        -0.1517
     35 C25        -7.6813   -4.8457    1.6870 C.ar      1 <0>        -0.0803
     36 C26        -7.4122   -3.9806    0.6441 C.ar      1 <0>        -0.2107
     37 C27        -1.9558   -1.2620   -1.5766 C.3       1 <0>        -0.0670
     38 C28        -1.2834   -0.3811   -2.6315 C.3       1 <0>        -0.1475
     39 C29        -3.0569   -0.4655   -0.8736 C.3       1 <0>        -0.1562
     40 C30        -0.9154   -1.7107   -0.5484 C.3       1 <0>        -0.1312
     41 N4          1.0422   -5.7442   -2.2516 N.4       1 <0>        -0.4942
     42 C31         2.0004   -6.5435   -3.0267 C.3       1 <0>        -0.0503
     43 H4          2.0827   -4.3495   -4.3015 H         1 <0>         0.1000
     44 H5          0.7792   -3.1423   -4.4105 H         1 <0>         0.1118
     45 H6          1.7725   -3.2490   -2.9373 H         1 <0>         0.0915
     46 H7         -0.1360   -5.4018   -3.9570 H         1 <0>         0.1667
     47 H8         -1.4111   -3.0276   -3.9504 H         1 <0>         0.4177
     48 H9         -5.1143   -3.4621   -1.1990 H         1 <0>         0.0815
     49 H10        -5.0135   -1.7421   -0.7296 H         1 <0>         0.0988
     50 H11        -8.2237   -1.6070   -3.1000 H         1 <0>         0.1083
     51 H12        -7.1368   -0.3686   -2.3863 H         1 <0>         0.1016
     52 H13        -7.1303   -1.2820   -6.0198 H         1 <0>         0.4003
     53 H14        -5.1115    0.7323   -6.6443 H         1 <0>         0.0993
     54 H15        -5.7806   -0.7250   -8.4537 H         1 <0>         0.0743
     55 H16        -7.5043   -0.3654   -8.1760 H         1 <0>         0.0730
     56 H17        -5.4403    1.7701   -8.8823 H         1 <0>         0.0694
     57 H18        -6.4426    0.9381  -10.0992 H         1 <0>         0.0765
     58 H19        -7.4028    3.1383   -9.2811 H         1 <0>         0.0785
     59 H20        -8.4804    1.7405   -9.0726 H         1 <0>         0.0789
     60 H21        -6.6140    1.3706   -4.2492 H         1 <0>         0.1253
     61 H22        -7.9231    3.3183   -3.5208 H         1 <0>         0.1195
     62 H23        -9.0428    4.7408   -5.1952 H         1 <0>         0.1226
     63 H24        -8.8496    4.2008   -7.5845 H         1 <0>         0.1224
     64 H25        -8.5348   -1.1092    2.0317 H         1 <0>         0.1331
     65 H26        -9.0214   -2.6596    3.8805 H         1 <0>         0.1329
     66 H27        -8.4754   -5.0495    3.6610 H         1 <0>         0.1267
     67 H28        -7.4423   -5.8948    1.5931 H         1 <0>         0.1253
     68 H29        -6.9630   -4.3528   -0.2647 H         1 <0>         0.1245
     69 H30        -2.0247   -0.0614   -3.3639 H         1 <0>         0.0768
     70 H31        -0.8476    0.4942   -2.1498 H         1 <0>         0.0623
     71 H32        -0.4990   -0.9486   -3.1323 H         1 <0>         0.0488
     72 H33        -3.4786   -1.0635   -0.0658 H         1 <0>         0.0615
     73 H34        -2.6361    0.4529   -0.4643 H         1 <0>         0.0717
     74 H35        -3.8404   -0.2184   -1.5900 H         1 <0>         0.0696
     75 H36        -0.1310   -2.2782   -1.0492 H         1 <0>         0.0463
     76 H37        -0.4796   -0.8354   -0.0668 H         1 <0>         0.0616
     77 H38        -1.3944   -2.3383    0.2031 H         1 <0>         0.0646
     78 H39         1.5372   -5.2093   -1.5538 H         1 <0>         0.4350
     79 H40         1.4657   -7.1213   -3.7805 H         1 <0>         0.1265
     80 H41         2.7146   -5.8810   -3.5157 H         1 <0>         0.1276
     81 H42         2.5321   -7.2214   -2.3589 H         1 <0>         0.1337
     82 H43         0.3811   -6.3575   -1.7989 H         1 <0>         0.4374
@<TRIPOS>BOND
     1    1    2 1
     2    1   43 1
     3    1   44 1
     4    1   45 1
     5    2    3 1
     6    2   41 1
     7    2   46 1
     8    3    4 2
     9    3    5 am
    10    5    6 1
    11    5   47 1
    12    6    7 1
    13    6    8 1
    14    6   37 1
    15    8    9 2
    16    8   10 am
    17   10   15 1
    18   10   11 1
    19   11   12 1
    20   11   48 1
    21   11   49 1
    22   12   13 1
    23   12   14 1
    24   12   30 1
    25   14   15 1
    26   14   50 1
    27   14   51 1
    28   15   16 1
    29   15   17 1
    30   17   18 2
    31   17   19 am
    32   19   20 1
    33   19   52 1
    34   20   25 1
    35   20   21 1
    36   20   53 1
    37   21   22 1
    38   21   54 1
    39   21   55 1
    40   22   23 1
    41   22   56 1
    42   22   57 1
    43   23   24 1
    44   23   58 1
    45   23   59 1
    46   24   29 ar
    47   24   25 ar
    48   25   26 ar
    49   26   27 ar
    50   26   60 1
    51   27   28 ar
    52   27   61 1
    53   28   29 ar
    54   28   62 1
    55   29   63 1
    56   30   31 1
    57   31   36 ar
    58   31   32 ar
    59   32   33 ar
    60   32   64 1
    61   33   34 ar
    62   33   65 1
    63   34   35 ar
    64   34   66 1
    65   35   36 ar
    66   35   67 1
    67   36   68 1
    68   37   38 1
    69   37   39 1
    70   37   40 1
    71   38   69 1
    72   38   70 1
    73   38   71 1
    74   39   72 1
    75   39   73 1
    76   39   74 1
    77   40   75 1
    78   40   76 1
    79   40   77 1
    80   41   42 1
    81   41   78 1
    82   41   82 1
    83   42   79 1
    84   42   80 1
    85   42   81 1
@<TRIPOS>MOLECULE
CHEMBL365298__2
   82    85     0     0     0
SMALL
USER_CHARGES

@<TRIPOS>ATOM
      1 C1         -0.8263    4.7273    4.5532 C.3       1 <0>        -0.1825
      2 C2         -1.4605    3.7362    3.5751 C.3       1 <0>         0.0045
      3 C3         -0.6834    2.4452    3.5937 C.2       1 <0>         0.5049
      4 O1         -1.2335    1.4108    3.9076 O.2       1 <0>        -0.5188
      5 N1          0.6227    2.4399    3.2614 N.am      1 <0>        -0.6830
      6 C4          1.3781    1.1848    3.2794 C.3       1 <0>         0.1425
      7 H1          1.0178    0.5555    4.0933 H         1 <0>         0.1128
      8 C5          2.8412    1.4820    3.4842 C.2       1 <0>         0.5372
      9 O2          3.3444    2.4477    2.9502 O.2       1 <0>        -0.4959
     10 N2          3.5907    0.6746    4.2607 N.am      1 <0>        -0.5945
     11 C6          3.1399   -0.5823    4.8761 C.3       1 <0>         0.0637
     12 C7          4.3400   -1.1710    5.6473 C.3       1 <0>         0.0802
     13 H2          4.2942   -0.8951    6.7008 H         1 <0>         0.0989
     14 C8          5.5583   -0.5025    4.9572 C.3       1 <0>        -0.1165
     15 C9          5.0000    0.9022    4.6284 C.3       1 <0>         0.1195
     16 H3          5.0640    1.5478    5.5043 H         1 <0>         0.1053
     17 C10         5.7524    1.5088    3.4722 C.2       1 <0>         0.5160
     18 O3          5.3452    1.3611    2.3393 O.2       1 <0>        -0.5006
     19 N3          6.8778    2.2155    3.6969 N.am      1 <0>        -0.7198
     20 C11         7.6092    2.8052    2.5729 C.3       1 <0>         0.1920
     21 C12         9.0798    2.9606    2.9549 C.3       1 <0>        -0.1264
     22 C13         9.7808    3.7728    1.8596 C.3       1 <0>        -0.1167
     23 C14         9.2774    5.2131    1.9315 C.3       1 <0>        -0.0858
     24 C15         7.7715    5.2479    1.9363 C.ar      1 <0>        -0.0656
     25 C16         7.0055    4.1432    2.2346 C.ar      1 <0>        -0.1044
     26 C17         5.6205    4.2445    2.2277 C.ar      1 <0>        -0.1102
     27 C18         5.0065    5.4415    1.9211 C.ar      1 <0>        -0.1301
     28 C19         5.7754    6.5493    1.6178 C.ar      1 <0>        -0.1163
     29 C20         7.1516    6.4512    1.6261 C.ar      1 <0>        -0.1306
     30 O4          4.3878   -2.5916    5.5002 O.3       1 <0>        -0.2946
     31 C21         3.6231   -3.3260    6.3504 C.ar      1 <0>         0.1209
     32 C22         3.6831   -4.7116    6.3182 C.ar      1 <0>        -0.1455
     33 C23         2.9052   -5.4558    7.1838 C.ar      1 <0>        -0.0769
     34 C24         2.0669   -4.8209    8.0815 C.ar      1 <0>        -0.1518
     35 C25         2.0049   -3.4400    8.1153 C.ar      1 <0>        -0.0804
     36 C26         2.7854   -2.6912    7.2560 C.ar      1 <0>        -0.2108
     37 C27         1.1873    0.4555    1.9480 C.3       1 <0>        -0.0670
     38 C28         1.5732    1.3864    0.7968 C.3       1 <0>        -0.1473
     39 C29         2.0756   -0.7898    1.9167 C.3       1 <0>        -0.1561
     40 C30        -0.2779    0.0407    1.7992 C.3       1 <0>        -0.1314
     41 N4         -2.8505    3.4769    3.9732 N.4       1 <0>        -0.4941
     42 C31        -3.6363    4.7110    3.8402 C.3       1 <0>        -0.0503
     43 H4          0.2051    4.9197    4.2578 H         1 <0>         0.1109
     44 H5         -1.3883    5.6611    4.5398 H         1 <0>         0.1000
     45 H6         -0.8439    4.3070    5.5588 H         1 <0>         0.0904
     46 H7         -1.4429    4.1565    2.5695 H         1 <0>         0.1672
     47 H8          1.0626    3.2672    3.0103 H         1 <0>         0.4177
     48 H9          2.3181   -0.3843    5.5642 H         1 <0>         0.0815
     49 H10         2.8185   -1.2795    4.1023 H         1 <0>         0.0981
     50 H11         6.4065   -0.4381    5.6387 H         1 <0>         0.1088
     51 H12         5.8311   -1.0340    4.0455 H         1 <0>         0.1024
     52 H13         7.2035    2.3336    4.6029 H         1 <0>         0.4010
     53 H14         7.5308    2.1465    1.7079 H         1 <0>         0.0983
     54 H15         9.1582    3.4845    3.9075 H         1 <0>         0.0729
     55 H16         9.5437    1.9776    3.0367 H         1 <0>         0.0768
     56 H17        10.8587    3.7522    2.0202 H         1 <0>         0.0774
     57 H18         9.5466    3.3504    0.8825 H         1 <0>         0.0699
     58 H19         9.6507    5.6792    2.8433 H         1 <0>         0.0782
     59 H20         9.6470    5.7665    1.0682 H         1 <0>         0.0779
     60 H21         5.0190    3.3791    2.4639 H         1 <0>         0.1613
     61 H22         3.9289    5.5124    1.9177 H         1 <0>         0.1118
     62 H23         5.3005    7.4884    1.3749 H         1 <0>         0.1175
     63 H24         7.7517    7.3174    1.3893 H         1 <0>         0.1201
     64 H25         4.3372   -5.2081    5.6167 H         1 <0>         0.1332
     65 H26         2.9515   -6.5346    7.1591 H         1 <0>         0.1330
     66 H27         1.4592   -5.4045    8.7572 H         1 <0>         0.1266
     67 H28         1.3491   -2.9464    8.8172 H         1 <0>         0.1251
     68 H29         2.7400   -1.6125    7.2858 H         1 <0>         0.1243
     69 H30         2.6170    1.6819    0.9028 H         1 <0>         0.0776
     70 H31         1.4373    0.8668   -0.1518 H         1 <0>         0.0620
     71 H32         0.9404    2.2736    0.8190 H         1 <0>         0.0483
     72 H33         1.7335   -1.4991    2.6703 H         1 <0>         0.0610
     73 H34         2.0193   -1.2516    0.9310 H         1 <0>         0.0714
     74 H35         3.1068   -0.5058    2.1266 H         1 <0>         0.0703
     75 H36        -0.9108    0.9279    1.8215 H         1 <0>         0.0465
     76 H37        -0.4139   -0.4788    0.8507 H         1 <0>         0.0615
     77 H38        -0.5529   -0.6225    2.6194 H         1 <0>         0.0641
     78 H39        -3.2430    2.7626    3.3784 H         1 <0>         0.4378
     79 H40        -3.2123    5.4827    4.4827 H         1 <0>         0.1274
     80 H41        -3.6119    5.0473    2.8037 H         1 <0>         0.1268
     81 H42        -4.6677    4.5185    4.1356 H         1 <0>         0.1338
     82 H43        -2.8731    3.1656    4.9327 H         1 <0>         0.4347
@<TRIPOS>BOND
     1    1    2 1
     2    1   43 1
     3    1   44 1
     4    1   45 1
     5    2    3 1
     6    2   41 1
     7    2   46 1
     8    3    4 2
     9    3    5 am
    10    5    6 1
    11    5   47 1
    12    6    7 1
    13    6    8 1
    14    6   37 1
    15    8    9 2
    16    8   10 am
    17   10   15 1
    18   10   11 1
    19   11   12 1
    20   11   48 1
    21   11   49 1
    22   12   13 1
    23   12   14 1
    24   12   30 1
    25   14   15 1
    26   14   50 1
    27   14   51 1
    28   15   16 1
    29   15   17 1
    30   17   18 2
    31   17   19 am
    32   19   20 1
    33   19   52 1
    34   20   25 1
    35   20   21 1
    36   20   53 1
    37   21   22 1
    38   21   54 1
    39   21   55 1
    40   22   23 1
    41   22   56 1
    42   22   57 1
    43   23   24 1
    44   23   58 1
    45   23   59 1
    46   24   29 ar
    47   24   25 ar
    48   25   26 ar
    49   26   27 ar
    50   26   60 1
    51   27   28 ar
    52   27   61 1
    53   28   29 ar
    54   28   62 1
    55   29   63 1
    56   30   31 1
    57   31   36 ar
    58   31   32 ar
    59   32   33 ar
    60   32   64 1
    61   33   34 ar
    62   33   65 1
    63   34   35 ar
    64   34   66 1
    65   35   36 ar
    66   35   67 1
    67   36   68 1
    68   37   38 1
    69   37   39 1
    70   37   40 1
    71   38   69 1
    72   38   70 1
    73   38   71 1
    74   39   72 1
    75   39   73 1
    76   39   74 1
    77   40   75 1
    78   40   76 1
    79   40   77 1
    80   41   42 1
    81   41   78 1
    82   41   82 1
    83   42   79 1
    84   42   80 1
    85   42   81 1
@<TRIPOS>MOLECULE
CHEMBL365298__3
   82    85     0     0     0
SMALL
USER_CHARGES

@<TRIPOS>ATOM
      1 C1          0.0102    5.1579    4.8503 C.3       1 <0>        -0.1825
      2 C2         -0.6962    4.2682    3.8255 C.3       1 <0>         0.0048
      3 C3         -0.0514    2.9062    3.8134 C.2       1 <0>         0.5051
      4 O1         -0.7082    1.9220    4.0795 O.2       1 <0>        -0.5189
      5 N1          1.2551    2.7818    3.5068 N.am      1 <0>        -0.6834
      6 C4          1.8819    1.4578    3.4951 C.3       1 <0>         0.1418
      7 H1          1.4425    0.8408    4.2789 H         1 <0>         0.1132
      8 C5          3.3622    1.6006    3.7389 C.2       1 <0>         0.5360
      9 O2          3.9707    2.5283    3.2491 O.2       1 <0>        -0.4974
     10 N2          4.0098    0.6973    4.5013 N.am      1 <0>        -0.5947
     11 C6          3.4272   -0.5361    5.0498 C.3       1 <0>         0.0646
     12 C7          4.5434   -1.2631    5.8289 C.3       1 <0>         0.0797
     13 H2          4.4892   -1.0262    6.8915 H         1 <0>         0.0999
     14 C8          5.8389   -0.6829    5.2026 C.3       1 <0>        -0.1183
     15 C9          5.4216    0.7793    4.9181 C.3       1 <0>         0.1196
     16 H3          5.5159    1.3810    5.8220 H         1 <0>         0.1040
     17 C10         6.2626    1.3594    3.8103 C.2       1 <0>         0.5186
     18 O3          5.9105    1.2406    2.6559 O.2       1 <0>        -0.5007
     19 N3          7.4061    2.0101    4.1026 N.am      1 <0>        -0.7194
     20 C11         8.2238    2.5741    3.0257 C.3       1 <0>         0.1938
     21 C12         9.0349    3.7477    3.5711 C.3       1 <0>        -0.1249
     22 C13        10.0386    4.1826    2.4967 C.3       1 <0>        -0.1161
     23 C14        11.1014    3.0940    2.3618 C.3       1 <0>        -0.0851
     24 C15        10.4571    1.7453    2.1751 C.ar      1 <0>        -0.0674
     25 C16         9.1366    1.5056    2.4836 C.ar      1 <0>        -0.0991
     26 C17         8.6055    0.2366    2.2937 C.ar      1 <0>        -0.1065
     27 C18         9.3889   -0.7841    1.7955 C.ar      1 <0>        -0.1275
     28 C19        10.7133   -0.5425    1.4821 C.ar      1 <0>        -0.1117
     29 C20        11.2434    0.7171    1.6719 C.ar      1 <0>        -0.1245
     30 O4          4.4665   -2.6750    5.6230 O.3       1 <0>        -0.2943
     31 C21         3.6886   -3.3826    6.4840 C.ar      1 <0>         0.1207
     32 C22         3.6599   -4.7680    6.4162 C.ar      1 <0>        -0.1455
     33 C23         2.8687   -5.4849    7.2928 C.ar      1 <0>        -0.0769
     34 C24         2.1056   -4.8229    8.2368 C.ar      1 <0>        -0.1517
     35 C25         2.1321   -3.4423    8.3061 C.ar      1 <0>        -0.0803
     36 C26         2.9264   -2.7210    7.4358 C.ar      1 <0>        -0.2107
     37 C27         1.6506    0.7960    2.1351 C.3       1 <0>        -0.0675
     38 C28         2.1811    1.7082    1.0273 C.3       1 <0>        -0.1476
     39 C29         2.3868   -0.5444    2.0884 C.3       1 <0>        -0.1561
     40 C30         0.1525    0.5625    1.9299 C.3       1 <0>        -0.1310
     41 N4         -2.1139    4.1357    4.1867 N.4       1 <0>        -0.4941
     42 C31        -2.7704    5.4457    4.0823 C.3       1 <0>        -0.0503
     43 H4          1.0622    5.2562    4.5823 H         1 <0>         0.1108
     44 H5         -0.4561    6.1430    4.8591 H         1 <0>         0.1000
     45 H6         -0.0720    4.7082    5.8398 H         1 <0>         0.0903
     46 H7         -0.6139    4.7180    2.8360 H         1 <0>         0.1672
     47 H8          1.7804    3.5690    3.2940 H         1 <0>         0.4177
     48 H9          2.6051   -0.2906    5.7222 H         1 <0>         0.0815
     49 H10         3.0686   -1.1694    4.2383 H         1 <0>         0.0988
     50 H11         6.6672   -0.7240    5.9099 H         1 <0>         0.1082
     51 H12         6.0913   -1.2006    4.2772 H         1 <0>         0.1016
     52 H13         7.6877    2.1051    5.0259 H         1 <0>         0.4003
     53 H14         7.5717    2.9287    2.2275 H         1 <0>         0.0993
     54 H15         8.3679    4.5767    3.8074 H         1 <0>         0.0743
     55 H16         9.5696    3.4385    4.4693 H         1 <0>         0.0730
     56 H17         9.5239    4.3132    1.5448 H         1 <0>         0.0694
     57 H18        10.5092    5.1204    2.7920 H         1 <0>         0.0765
     58 H19        11.7330    3.3129    1.5008 H         1 <0>         0.0785
     59 H20        11.7154    3.0774    3.2623 H         1 <0>         0.0789
     60 H21         7.5708    0.0469    2.5384 H         1 <0>         0.1253
     61 H22         8.9689   -1.7686    1.6512 H         1 <0>         0.1196
     62 H23        11.3311   -1.3371    1.0905 H         1 <0>         0.1226
     63 H24        12.2784    0.9051    1.4271 H         1 <0>         0.1224
     64 H25         4.2552   -5.2855    5.6786 H         1 <0>         0.1331
     65 H26         2.8460   -6.5634    7.2405 H         1 <0>         0.1330
     66 H27         1.4874   -5.3852    8.9210 H         1 <0>         0.1267
     67 H28         1.5349   -2.9275    9.0441 H         1 <0>         0.1253
     68 H29         2.9502   -1.6428    7.4932 H         1 <0>         0.1245
     69 H30         3.2483    1.8745    1.1735 H         1 <0>         0.0769
     70 H31         2.0162    1.2367    0.0584 H         1 <0>         0.0625
     71 H32         1.6566    2.6631    1.0606 H         1 <0>         0.0485
     72 H33         1.9517   -1.2237    2.8214 H         1 <0>         0.0616
     73 H34         2.2925   -0.9761    1.0920 H         1 <0>         0.0718
     74 H35         3.4407   -0.3883    2.3185 H         1 <0>         0.0696
     75 H36        -0.3720    1.5174    1.9632 H         1 <0>         0.0456
     76 H37        -0.0123    0.0910    0.9610 H         1 <0>         0.0618
     77 H38        -0.2254   -0.0874    2.7191 H         1 <0>         0.0649
     78 H39        -2.5614    3.4843    3.5594 H         1 <0>         0.4378
     79 H40        -2.2870    6.1494    4.7600 H         1 <0>         0.1274
     80 H41        -2.6890    5.8123    3.0591 H         1 <0>         0.1268
     81 H42        -3.8223    5.3473    4.3504 H         1 <0>         0.1338
     82 H43        -2.1893    3.7963    5.1339 H         1 <0>         0.4346
@<TRIPOS>BOND
     1    1    2 1
     2    1   43 1
     3    1   44 1
     4    1   45 1
     5    2    3 1
     6    2   41 1
     7    2   46 1
     8    3    4 2
     9    3    5 am
    10    5    6 1
    11    5   47 1
    12    6    7 1
    13    6    8 1
    14    6   37 1
    15    8    9 2
    16    8   10 am
    17   10   15 1
    18   10   11 1
    19   11   12 1
    20   11   48 1
    21   11   49 1
    22   12   13 1
    23   12   14 1
    24   12   30 1
    25   14   15 1
    26   14   50 1
    27   14   51 1
    28   15   16 1
    29   15   17 1
    30   17   18 2
    31   17   19 am
    32   19   20 1
    33   19   52 1
    34   20   25 1
    35   20   21 1
    36   20   53 1
    37   21   22 1
    38   21   54 1
    39   21   55 1
    40   22   23 1
    41   22   56 1
    42   22   57 1
    43   23   24 1
    44   23   58 1
    45   23   59 1
    46   24   29 ar
    47   24   25 ar
    48   25   26 ar
    49   26   27 ar
    50   26   60 1
    51   27   28 ar
    52   27   61 1
    53   28   29 ar
    54   28   62 1
    55   29   63 1
    56   30   31 1
    57   31   36 ar
    58   31   32 ar
    59   32   33 ar
    60   32   64 1
    61   33   34 ar
    62   33   65 1
    63   34   35 ar
    64   34   66 1
    65   35   36 ar
    66   35   67 1
    67   36   68 1
    68   37   38 1
    69   37   39 1
    70   37   40 1
    71   38   69 1
    72   38   70 1
    73   38   71 1
    74   39   72 1
    75   39   73 1
    76   39   74 1
    77   40   75 1
    78   40   76 1
    79   40   77 1
    80   41   42 1
    81   41   78 1
    82   41   82 1
    83   42   79 1
    84   42   80 1
    85   42   81 1
@<TRIPOS>MOLECULE
CHEMBL186755
   81    83     0     0     0
SMALL
USER_CHARGES

@<TRIPOS>ATOM
      1 C1          1.9374    1.6220   -0.0702 C.3       1 <0>        -0.1848
      2 C2          1.3663    0.2074    0.0464 C.3       1 <0>         0.0098
      3 H1          0.3228    0.2613    0.3567 H         1 <0>         0.1693
      4 C3          1.4580   -0.4831   -1.2899 C.2       1 <0>         0.5034
      5 O1          2.1004   -1.5058   -1.4012 O.2       1 <0>        -0.5219
      6 N1          0.8262    0.0358   -2.3614 N.am      1 <0>        -0.6787
      7 C4          0.9153   -0.6355   -3.6605 C.3       1 <0>         0.1393
      8 H2          1.9030   -1.0830   -3.7712 H         1 <0>         0.1193
      9 C5         -0.1521   -1.7284   -3.7441 C.3       1 <0>        -0.1033
     10 C6          0.1487   -2.8153   -2.7101 C.3       1 <0>        -0.1363
     11 C7         -1.5273   -1.1209   -3.4601 C.3       1 <0>        -0.1509
     12 C8          0.6929    0.3693   -4.7614 C.2       1 <0>         0.5470
     13 O2          0.0962    1.3996   -4.5306 O.2       1 <0>        -0.5315
     14 N2          1.1569    0.1229   -6.0025 N.am      1 <0>        -0.6107
     15 C9          1.8145   -1.0029   -6.6830 C.3       1 <0>         0.0814
     16 C10         1.2086   -0.4918   -7.9974 C.3       1 <0>        -0.1417
     17 C11         1.2227    0.8590   -7.2740 C.3       1 <0>         0.1139
     18 C12         2.5074    1.6250   -7.4582 C.2       1 <0>         0.5161
     19 O3          3.3618    1.5920   -6.5981 O.2       1 <0>        -0.5163
     20 N3          2.7068    2.3469   -8.5787 N.am      1 <0>        -0.6988
     21 C13         3.9556    3.0916   -8.7577 C.3       1 <0>         0.1424
     22 H3          4.2927    3.4728   -7.7938 H         1 <0>         0.1083
     23 C14         5.0234    2.1640   -9.3411 C.3       1 <0>        -0.0928
     24 C15         5.3451    1.0796   -8.3452 C.ar      1 <0>        -0.0520
     25 C16         6.3459    1.2734   -7.4116 C.ar      1 <0>        -0.1020
     26 C17         6.6411    0.2787   -6.4981 C.ar      1 <0>        -0.1131
     27 C18         5.9351   -0.9096   -6.5181 C.ar      1 <0>        -0.1253
     28 C19         4.9337   -1.1030   -7.4512 C.ar      1 <0>        -0.1222
     29 C20         4.6357   -0.1067   -8.3618 C.ar      1 <0>        -0.1111
     30 C21         3.7224    4.2443   -9.7001 C.2       1 <0>         0.5139
     31 O4          2.6215    4.4259  -10.1753 O.2       1 <0>        -0.5404
     32 N4          4.7373    5.0734  -10.0147 N.am      1 <0>        -0.6827
     33 C22         4.5106    6.1940  -10.9308 C.3       1 <0>         0.0839
     34 H4          3.5070    6.5907  -10.7781 H         1 <0>         0.0853
     35 C23         5.5402    7.2923  -10.6577 C.3       1 <0>        -0.0772
     36 C24         5.3201    7.8551   -9.2772 C.ar      1 <0>        -0.0717
     37 C25         4.4640    8.9258   -9.0968 C.ar      1 <0>        -0.0988
     38 C26         4.2608    9.4438   -7.8324 C.ar      1 <0>        -0.1400
     39 C27         4.9163    8.8886   -6.7430 C.ar      1 <0>         0.0860
     40 C28         5.7745    7.8141   -6.9266 C.ar      1 <0>        -0.1428
     41 C29         5.9702    7.2964   -8.1923 C.ar      1 <0>        -0.1035
     42 O5          4.7185    9.3967   -5.4982 O.3       1 <0>        -0.5015
     43 C30         4.6510    5.7163  -12.3532 C.2       1 <0>         0.4914
     44 O6          4.9159    4.5481  -12.5806 O.co2     1 <0>        -0.6820
     45 O7          4.4997    6.4980  -13.2765 O.co2     1 <0>        -0.6908
     46 N5          2.1349   -0.5503    1.0429 N.4       1 <0>        -0.6196
     47 H5          2.9809    1.5681   -0.3805 H         1 <0>         0.0917
     48 H6          1.3671    2.1843   -0.8096 H         1 <0>         0.1134
     49 H7          1.8711    2.1215    0.8963 H         1 <0>         0.0997
     50 H8          0.3124    0.8537   -2.2723 H         1 <0>         0.4189
     51 H9         -0.1471   -2.1655   -4.7426 H         1 <0>         0.0925
     52 H10        -0.6117   -3.5939   -2.7697 H         1 <0>         0.0602
     53 H11         1.1285   -3.2480   -2.9125 H         1 <0>         0.0654
     54 H12         0.1438   -2.3782   -1.7116 H         1 <0>         0.0471
     55 H13        -1.7416   -0.3466   -4.1967 H         1 <0>         0.0641
     56 H14        -2.2878   -1.8996   -3.5197 H         1 <0>         0.0654
     57 H15        -1.5323   -0.6839   -2.4616 H         1 <0>         0.0522
     58 H16         2.9029   -0.9498   -6.6572 H         1 <0>         0.1120
     59 H17         1.4322   -1.9772   -6.3787 H         1 <0>         0.0836
     60 H18         1.8820   -0.5503   -8.8525 H         1 <0>         0.1029
     61 H19         0.2089   -0.8726   -8.2066 H         1 <0>         0.1116
     62 H20         0.3382    1.4646   -7.4712 H         1 <0>         0.1163
     63 H21         2.0234    2.3734   -9.2666 H         1 <0>         0.4132
     64 H22         4.6503    1.7136  -10.2608 H         1 <0>         0.0900
     65 H23         5.9246    2.7379   -9.5571 H         1 <0>         0.0921
     66 H24         6.8975    2.2018   -7.3960 H         1 <0>         0.1170
     67 H25         7.4234    0.4299   -5.7691 H         1 <0>         0.1137
     68 H26         6.1661   -1.6870   -5.8049 H         1 <0>         0.1116
     69 H27         4.3823   -2.0316   -7.4669 H         1 <0>         0.1149
     70 H28         3.8508   -0.2563   -9.0884 H         1 <0>         0.1136
     71 H29         5.6179    4.9282   -9.6346 H         1 <0>         0.3895
     72 H30         6.5444    6.8735  -10.7234 H         1 <0>         0.0740
     73 H31         5.4287    8.0865  -11.3959 H         1 <0>         0.0978
     74 H32         3.9539    9.3576   -9.9452 H         1 <0>         0.1299
     75 H33         3.5926   10.2806   -7.6921 H         1 <0>         0.1256
     76 H34         6.2859    7.3802   -6.0801 H         1 <0>         0.1227
     77 H35         6.6347    6.4571   -8.3352 H         1 <0>         0.1221
     78 H36         3.9874    8.9854   -5.0171 H         1 <0>         0.3839
     79 H37         2.0735   -0.0880    1.9377 H         1 <0>         0.4425
     80 H38         1.7583   -1.4832    1.1198 H         1 <0>         0.4418
     81 H39         3.1009   -0.6002    0.7557 H         1 <0>         0.4408
@<TRIPOS>BOND
     1    1    2 1
     2    1   47 1
     3    1   48 1
     4    1   49 1
     5    2    3 1
     6    2    4 1
     7    2   46 1
     8    4    5 2
     9    4    6 am
    10    6    7 1
    11    6   50 1
    12    7    8 1
    13    7    9 1
    14    7   12 1
    15    9   10 1
    16    9   11 1
    17    9   51 1
    18   10   52 1
    19   10   53 1
    20   10   54 1
    21   11   55 1
    22   11   56 1
    23   11   57 1
    24   12   13 2
    25   12   14 am
    26   14   17 1
    27   14   15 1
    28   15   16 1
    29   15   58 1
    30   15   59 1
    31   16   17 1
    32   16   60 1
    33   16   61 1
    34   17   18 1
    35   17   62 1
    36   18   19 2
    37   18   20 am
    38   20   21 1
    39   20   63 1
    40   21   22 1
    41   21   23 1
    42   21   30 1
    43   23   24 1
    44   23   64 1
    45   23   65 1
    46   24   29 ar
    47   24   25 ar
    48   25   26 ar
    49   25   66 1
    50   26   27 ar
    51   26   67 1
    52   27   28 ar
    53   27   68 1
    54   28   29 ar
    55   28   69 1
    56   29   70 1
    57   30   31 2
    58   30   32 am
    59   32   33 1
    60   32   71 1
    61   33   34 1
    62   33   35 1
    63   33   43 1
    64   35   36 1
    65   35   72 1
    66   35   73 1
    67   36   41 ar
    68   36   37 ar
    69   37   38 ar
    70   37   74 1
    71   38   39 ar
    72   38   75 1
    73   39   40 ar
    74   39   42 1
    75   40   41 ar
    76   40   76 1
    77   41   77 1
    78   42   78 1
    79   43   44 2
    80   43   45 1
    81   46   79 1
    82   46   80 1
    83   46   81 1
@<TRIPOS>MOLECULE
CHEMBL186755__1
   81    83     0     0     0
SMALL
USER_CHARGES

@<TRIPOS>ATOM
      1 C1          1.3370    1.4329    0.1352 C.3       1 <0>        -0.1838
      2 C2          0.8393   -0.0133    0.0953 C.3       1 <0>         0.0085
      3 H1         -0.2366   -0.0322    0.2688 H         1 <0>         0.1687
      4 C3          1.1410   -0.6113   -1.2547 C.2       1 <0>         0.5024
      5 O1          1.8509   -1.5910   -1.3390 O.2       1 <0>        -0.5259
      6 N1          0.6218   -0.0574   -2.3684 N.am      1 <0>        -0.6755
      7 C4          0.9151   -0.6388   -3.6807 C.3       1 <0>         0.1381
      8 H2          1.9333   -1.0278   -3.6864 H         1 <0>         0.1129
      9 C5         -0.0673   -1.7766   -3.9655 C.3       1 <0>        -0.1011
     10 C6          0.1737   -2.9181   -2.9757 C.3       1 <0>        -0.1364
     11 C7         -1.5005   -1.2632   -3.8129 C.3       1 <0>        -0.1489
     12 C8          0.7767    0.4219   -4.7422 C.2       1 <0>         0.5306
     13 O2          0.1909    1.4546   -4.4948 O.2       1 <0>        -0.4718
     14 N2          1.3038    0.2228   -5.9666 N.am      1 <0>        -0.6240
     15 C9          1.9778   -0.8839   -6.6621 C.3       1 <0>         0.0960
     16 C10         1.4542   -0.3014   -7.9822 C.3       1 <0>        -0.1407
     17 C11         1.4524    1.0145   -7.1970 C.3       1 <0>         0.1185
     18 C12         0.2613    1.8879   -7.4962 C.2       1 <0>         0.5043
     19 O3         -0.6941    1.8872   -6.7491 O.2       1 <0>        -0.4886
     20 N3          0.2577    2.6697   -8.5940 N.am      1 <0>        -0.7068
     21 C13        -0.9002    3.5188   -8.8848 C.3       1 <0>         0.1455
     22 H3         -1.8119    3.0093   -8.5727 H         1 <0>         0.1063
     23 C14        -0.7681    4.8396   -8.1240 C.3       1 <0>        -0.0911
     24 C15        -0.8307    4.5740   -6.6419 C.ar      1 <0>        -0.0515
     25 C16        -2.0493    4.5807   -5.9894 C.ar      1 <0>        -0.1088
     26 C17        -2.1067    4.3371   -4.6299 C.ar      1 <0>        -0.1134
     27 C18        -0.9456    4.0863   -3.9230 C.ar      1 <0>        -0.1130
     28 C19         0.2730    4.0787   -4.5757 C.ar      1 <0>        -0.0756
     29 C20         0.3299    4.3181   -5.9359 C.ar      1 <0>        -0.1075
     30 C21        -0.9611    3.7956  -10.3649 C.2       1 <0>         0.5142
     31 O4         -0.1200    3.3295  -11.1041 O.2       1 <0>        -0.5430
     32 N4         -1.9501    4.5611  -10.8672 N.am      1 <0>        -0.6834
     33 C22        -2.0093    4.8301  -12.3061 C.3       1 <0>         0.0844
     34 H4         -1.6633    3.9538  -12.8542 H         1 <0>         0.0850
     35 C23        -3.4516    5.1458  -12.7071 C.3       1 <0>        -0.0770
     36 C24        -4.3106    3.9260  -12.4939 C.ar      1 <0>        -0.0722
     37 C25        -4.4670    3.0053  -13.5135 C.ar      1 <0>        -0.0992
     38 C26        -5.2543    1.8866  -13.3208 C.ar      1 <0>        -0.1404
     39 C27        -5.8879    1.6872  -12.1029 C.ar      1 <0>         0.0870
     40 C28        -5.7290    2.6123  -11.0813 C.ar      1 <0>        -0.1424
     41 C29        -4.9365    3.7267  -11.2773 C.ar      1 <0>        -0.1030
     42 O5         -6.6632    0.5877  -11.9110 O.3       1 <0>        -0.5016
     43 C30        -1.1277    6.0077  -12.6336 C.2       1 <0>         0.4913
     44 O6         -0.5075    6.5701  -11.7472 O.co2     1 <0>        -0.6825
     45 O7         -1.0347    6.3981  -13.7849 O.co2     1 <0>        -0.6919
     46 N5          1.5174   -0.7935    1.1390 N.4       1 <0>        -0.6195
     47 H5          2.4130    1.4518   -0.0383 H         1 <0>         0.0902
     48 H6          0.8339    2.0119   -0.6393 H         1 <0>         0.1143
     49 H7          1.1188    1.8655    1.1116 H         1 <0>         0.0990
     50 H8          0.0540    0.7261   -2.3009 H         1 <0>         0.4200
     51 H9          0.0823   -2.1398   -4.9823 H         1 <0>         0.0898
     52 H10        -0.5262   -3.7288   -3.1786 H         1 <0>         0.0582
     53 H11         1.1947   -3.2839   -3.0844 H         1 <0>         0.0627
     54 H12         0.0241   -2.5550   -1.9589 H         1 <0>         0.0466
     55 H13        -1.6721   -0.4500   -4.5181 H         1 <0>         0.0703
     56 H14        -2.2003   -2.0739   -4.0158 H         1 <0>         0.0612
     57 H15        -1.6500   -0.9001   -2.7961 H         1 <0>         0.0491
     58 H16         3.0639   -0.8539   -6.5750 H         1 <0>         0.0931
     59 H17         1.5622   -1.8631   -6.4246 H         1 <0>         0.0835
     60 H18         2.1724   -0.3345   -8.8014 H         1 <0>         0.1054
     61 H19         0.4609   -0.6521   -8.2626 H         1 <0>         0.1022
     62 H20         2.3971    1.5552   -7.2539 H         1 <0>         0.1157
     63 H21         1.0218    2.6703   -9.1915 H         1 <0>         0.4087
     64 H22         0.1858    5.3065   -8.3695 H         1 <0>         0.0848
     65 H23        -1.5826    5.5058   -8.4084 H         1 <0>         0.0878
     66 H24        -2.9565    4.7766   -6.5416 H         1 <0>         0.1113
     67 H25        -3.0588    4.3430   -4.1199 H         1 <0>         0.1071
     68 H26        -0.9904    3.8967   -2.8607 H         1 <0>         0.0985
     69 H27         1.1802    3.8832   -4.0233 H         1 <0>         0.0971
     70 H28         1.2816    4.3085   -6.4465 H         1 <0>         0.1016
     71 H29        -2.6228    4.9338  -10.2761 H         1 <0>         0.3894
     72 H30        -3.8275    5.9662  -12.0957 H         1 <0>         0.0734
     73 H31        -3.4821    5.4325  -13.7582 H         1 <0>         0.0971
     74 H32        -3.9736    3.1611  -14.4615 H         1 <0>         0.1294
     75 H33        -5.3767    1.1681  -14.1178 H         1 <0>         0.1254
     76 H34        -6.2213    2.4592  -10.1322 H         1 <0>         0.1233
     77 H35        -4.8090    4.4449  -10.4808 H         1 <0>         0.1218
     78 H36        -6.1834   -0.1759  -11.5621 H         1 <0>         0.3847
     79 H37         1.3154   -0.3931    2.0429 H         1 <0>         0.4423
     80 H38         1.1891   -1.7472    1.1127 H         1 <0>         0.4419
     81 H39         2.5134   -0.7760    0.9784 H         1 <0>         0.4399
@<TRIPOS>BOND
     1    1    2 1
     2    1   47 1
     3    1   48 1
     4    1   49 1
     5    2    3 1
     6    2    4 1
     7    2   46 1
     8    4    5 2
     9    4    6 am
    10    6    7 1
    11    6   50 1
    12    7    8 1
    13    7    9 1
    14    7   12 1
    15    9   10 1
    16    9   11 1
    17    9   51 1
    18   10   52 1
    19   10   53 1
    20   10   54 1
    21   11   55 1
    22   11   56 1
    23   11   57 1
    24   12   13 2
    25   12   14 am
    26   14   17 1
    27   14   15 1
    28   15   16 1
    29   15   58 1
    30   15   59 1
    31   16   17 1
    32   16   60 1
    33   16   61 1
    34   17   18 1
    35   17   62 1
    36   18   19 2
    37   18   20 am
    38   20   21 1
    39   20   63 1
    40   21   22 1
    41   21   23 1
    42   21   30 1
    43   23   24 1
    44   23   64 1
    45   23   65 1
    46   24   29 ar
    47   24   25 ar
    48   25   26 ar
    49   25   66 1
    50   26   27 ar
    51   26   67 1
    52   27   28 ar
    53   27   68 1
    54   28   29 ar
    55   28   69 1
    56   29   70 1
    57   30   31 2
    58   30   32 am
    59   32   33 1
    60   32   71 1
    61   33   34 1
    62   33   35 1
    63   33   43 1
    64   35   36 1
    65   35   72 1
    66   35   73 1
    67   36   41 ar
    68   36   37 ar
    69   37   38 ar
    70   37   74 1
    71   38   39 ar
    72   38   75 1
    73   39   40 ar
    74   39   42 1
    75   40   41 ar
    76   40   76 1
    77   41   77 1
    78   42   78 1
    79   43   44 2
    80   43   45 1
    81   46   79 1
    82   46   80 1
    83   46   81 1
@<TRIPOS>MOLECULE
CHEMBL360180
   72    75     0     0     0
SMALL
USER_CHARGES

@<TRIPOS>ATOM
      1 C1         -0.4947    2.2615    2.0588 C.3       1 <0>        -0.1824
      2 C2         -0.5051    0.9159    1.3306 C.3       1 <0>         0.0046
      3 H1         -0.2551    1.0690    0.2807 H         1 <0>         0.1671
      4 C3          0.5097   -0.0036    1.9597 C.2       1 <0>         0.5050
      5 O1          0.1548   -1.0567    2.4456 O.2       1 <0>        -0.5196
      6 N1          1.8116    0.3442    1.9824 N.am      1 <0>        -0.6833
      7 C4          2.7981   -0.5497    2.5940 C.3       1 <0>         0.1416
      8 H2          2.3507   -1.0520    3.4516 H         1 <0>         0.1132
      9 C5          3.9902    0.2530    3.0475 C.2       1 <0>         0.5378
     10 O2          4.4275    1.1392    2.3445 O.2       1 <0>        -0.5085
     11 N2          4.5703   -0.0140    4.2344 N.am      1 <0>        -0.5945
     12 C6          4.1961   -1.1103    5.1463 C.3       1 <0>         0.0873
     13 C7          5.4694   -1.3791    5.9867 C.3       1 <0>        -0.1325
     14 C8          6.0281    0.0563    6.1735 C.3       1 <0>        -0.1269
     15 C9          5.6853    0.7358    4.8311 C.3       1 <0>         0.1210
     16 H3          5.3854    1.7689    5.0067 H         1 <0>         0.1049
     17 C10         6.8798    0.6948    3.9132 C.2       1 <0>         0.5108
     18 O3          6.8145    0.0984    2.8592 O.2       1 <0>        -0.5107
     19 N3          8.0207    1.3210    4.2636 N.am      1 <0>        -0.7132
     20 C11         9.1820    1.2812    3.3713 C.3       1 <0>         0.2360
     21 C12        10.0243    0.0649    3.6687 C.ar      1 <0>        -0.1038
     22 C13         9.7509   -1.2855    3.6170 C.ar      1 <0>        -0.0831
     23 C14        10.7308   -2.2038    3.9503 C.ar      1 <0>        -0.1140
     24 C15        11.9862   -1.7694    4.3358 C.ar      1 <0>        -0.1102
     25 C16        12.2684   -0.4202    4.3903 C.ar      1 <0>        -0.0950
     26 C17        11.2847    0.5120    4.0555 C.ar      1 <0>        -0.0536
     27 C18        11.3132    1.9954    4.0263 C.ar      1 <0>        -0.0428
     28 C19        10.0705    2.4750    3.6214 C.ar      1 <0>        -0.1137
     29 C20         9.8490    3.8318    3.5169 C.ar      1 <0>        -0.0850
     30 C21        10.8637    4.7243    3.8145 C.ar      1 <0>        -0.1141
     31 C22        12.1019    4.2574    4.2173 C.ar      1 <0>        -0.1055
     32 C23        12.3322    2.9016    4.3250 C.ar      1 <0>        -0.0962
     33 C24         3.2459   -1.5929    1.5684 C.3       1 <0>        -0.0671
     34 C25         3.7588   -0.8858    0.3122 C.3       1 <0>        -0.1471
     35 C26         4.3657   -2.4474    2.1657 C.3       1 <0>        -0.1569
     36 C27         2.0612   -2.4888    1.2015 C.3       1 <0>        -0.1314
     37 N4         -1.8412    0.3140    1.4331 N.4       1 <0>        -0.4939
     38 C28        -2.8119    1.1515    0.7159 C.3       1 <0>        -0.0503
     39 H4          0.4967    2.7081    1.9827 H         1 <0>         0.1109
     40 H5         -1.2286    2.9265    1.6037 H         1 <0>         0.0998
     41 H6         -0.7447    2.1084    3.1086 H         1 <0>         0.0905
     42 H7          2.0954    1.1864    1.5938 H         1 <0>         0.4172
     43 H8          3.3735   -0.8026    5.7919 H         1 <0>         0.0777
     44 H9          3.9217   -1.9992    4.5784 H         1 <0>         0.0867
     45 H10         5.2160   -1.8278    6.9472 H         1 <0>         0.0960
     46 H11         6.1742   -2.0045    5.4388 H         1 <0>         0.0825
     47 H12         5.5303    0.5590    7.0026 H         1 <0>         0.0943
     48 H13         7.1070    0.0332    6.3269 H         1 <0>         0.0921
     49 H14         8.0730    1.7980    5.1066 H         1 <0>         0.4034
     50 H15         8.8554    1.2677    2.3315 H         1 <0>         0.1134
     51 H16         8.7712   -1.6267    3.3166 H         1 <0>         0.1237
     52 H17        10.5151   -3.2613    3.9097 H         1 <0>         0.1279
     53 H18        12.7482   -2.4892    4.5954 H         1 <0>         0.1296
     54 H19        13.2498   -0.0853    4.6921 H         1 <0>         0.1257
     55 H20         8.8830    4.1983    3.2023 H         1 <0>         0.1247
     56 H21        10.6888    5.7868    3.7319 H         1 <0>         0.1308
     57 H22        12.8916    4.9571    4.4480 H         1 <0>         0.1311
     58 H23        13.3004    2.5413    4.6398 H         1 <0>         0.1270
     59 H24         4.6029   -0.2476    0.5736 H         1 <0>         0.0774
     60 H25         4.0779   -1.6291   -0.4184 H         1 <0>         0.0614
     61 H26         2.9611   -0.2771   -0.1134 H         1 <0>         0.0474
     62 H27         4.0102   -2.9259    3.0783 H         1 <0>         0.0583
     63 H28         4.6628   -3.2112    1.4470 H         1 <0>         0.0688
     64 H29         5.2219   -1.8140    2.3975 H         1 <0>         0.0772
     65 H30         1.2634   -1.8801    0.7759 H         1 <0>         0.0458
     66 H31         2.3803   -3.2321    0.4708 H         1 <0>         0.0609
     67 H32         1.6958   -2.9926    2.0963 H         1 <0>         0.0640
     68 H33        -1.8267   -0.6086    1.0249 H         1 <0>         0.4377
     69 H34        -3.8033    0.7049    0.7919 H         1 <0>         0.1336
     70 H35        -2.8276    2.1482    1.1569 H         1 <0>         0.1274
     71 H36        -2.5250    1.2229   -0.3332 H         1 <0>         0.1267
     72 H37        -2.1067    0.2480    2.4043 H         1 <0>         0.4347
@<TRIPOS>BOND
     1    1    2 1
     2    1   39 1
     3    1   40 1
     4    1   41 1
     5    2    3 1
     6    2    4 1
     7    2   37 1
     8    4    5 2
     9    4    6 am
    10    6    7 1
    11    6   42 1
    12    7    8 1
    13    7    9 1
    14    7   33 1
    15    9   10 2
    16    9   11 am
    17   11   15 1
    18   11   12 1
    19   12   13 1
    20   12   43 1
    21   12   44 1
    22   13   14 1
    23   13   45 1
    24   13   46 1
    25   14   15 1
    26   14   47 1
    27   14   48 1
    28   15   16 1
    29   15   17 1
    30   17   18 2
    31   17   19 am
    32   19   20 1
    33   19   49 1
    34   20   28 1
    35   20   21 1
    36   20   50 1
    37   21   26 ar
    38   21   22 ar
    39   22   23 ar
    40   22   51 1
    41   23   24 ar
    42   23   52 1
    43   24   25 ar
    44   24   53 1
    45   25   26 ar
    46   25   54 1
    47   26   27 1
    48   27   32 ar
    49   27   28 ar
    50   28   29 ar
    51   29   30 ar
    52   29   55 1
    53   30   31 ar
    54   30   56 1
    55   31   32 ar
    56   31   57 1
    57   32   58 1
    58   33   34 1
    59   33   35 1
    60   33   36 1
    61   34   59 1
    62   34   60 1
    63   34   61 1
    64   35   62 1
    65   35   63 1
    66   35   64 1
    67   36   65 1
    68   36   66 1
    69   36   67 1
    70   37   38 1
    71   37   68 1
    72   37   72 1
    73   38   69 1
    74   38   70 1
    75   38   71 1
@<TRIPOS>MOLECULE
CHEMBL221647
   29    30     0     0     0
SMALL
USER_CHARGES

@<TRIPOS>ATOM
      1 C1         -0.0167    1.3781    0.0096 C.ar      1 <0>        -0.1321
      2 C2          1.1709    2.0855    0.0021 C.ar      1 <0>        -0.1220
      3 C3          2.3773    1.4107   -0.0130 C.ar      1 <0>        -0.1172
      4 C4          2.3960    0.0285   -0.0201 C.ar      1 <0>        -0.0704
      5 C5          1.2084   -0.6789   -0.0117 C.ar      1 <0>        -0.1159
      6 C6          0.0021   -0.0041    0.0020 C.ar      1 <0>        -0.1204
      7 C7          3.7112   -0.7071   -0.0376 C.3       1 <0>        -0.0769
      8 C8          4.1714   -0.9633    1.3989 C.3       1 <0>        -0.0469
      9 C9          5.4865   -1.6989    1.3815 C.2       1 <0>        -0.2347
     10 C10         6.6448   -1.0130    1.4803 C.2       1 <0>         0.1138
     11 C11         7.9417   -1.7385    1.4636 C.2       1 <0>         0.3869
     12 O1          8.9844   -1.1211    1.5529 O.2       1 <0>        -0.5258
     13 C12         7.9630   -3.1990    1.3398 C.2       1 <0>        -0.4719
     14 C13         6.8047   -3.8849    1.2406 C.2       1 <0>         0.2559
     15 C14         5.5076   -3.1599    1.2633 C.2       1 <0>         0.3955
     16 O2          4.4648   -3.7777    1.1790 O.2       1 <0>        -0.4359
     17 O3          6.8243   -5.2325    1.1254 O.3       1 <0>        -0.6371
     18 O4          6.6252    0.3347    1.5940 O.3       1 <0>        -0.4599
     19 H1         -0.9591    1.9053    0.0259 H         1 <0>         0.1167
     20 H2          1.1563    3.1654    0.0076 H         1 <0>         0.1181
     21 H3          3.3051    1.9634   -0.0196 H         1 <0>         0.1216
     22 H4          1.2231   -1.7588   -0.0176 H         1 <0>         0.1239
     23 H5         -0.9258   -0.5567    0.0082 H         1 <0>         0.1189
     24 H6          3.5884   -1.6586   -0.5549 H         1 <0>         0.0744
     25 H7          4.4573   -0.1052   -0.5563 H         1 <0>         0.0720
     26 H8          4.2941   -0.0118    1.9163 H         1 <0>         0.0742
     27 H9          3.4252   -1.5652    1.9176 H         1 <0>         0.0722
     28 H10         8.9055   -3.7262    1.3277 H         1 <0>         0.1205
     29 H11         7.5023    0.7368    1.6589 H         1 <0>         0.4025
@<TRIPOS>BOND
     1    1    6 ar
     2    1    2 ar
     3    1   19 1
     4    2    3 ar
     5    2   20 1
     6    3    4 ar
     7    3   21 1
     8    4    5 ar
     9    4    7 1
    10    5    6 ar
    11    5   22 1
    12    6   23 1
    13    7    8 1
    14    7   24 1
    15    7   25 1
    16    8    9 1
    17    8   26 1
    18    8   27 1
    19    9   15 1
    20    9   10 2
    21   10   11 1
    22   10   18 1
    23   11   12 2
    24   11   13 1
    25   13   14 2
    26   13   28 1
    27   14   15 1
    28   14   17 1
    29   15   16 2
    30   18   29 1
@<TRIPOS>MOLECULE
CHEMBL221647__1
   29    30     0     0     0
SMALL
USER_CHARGES

@<TRIPOS>ATOM
      1 C1         -0.0167    1.3781    0.0096 C.ar      1 <0>        -0.1392
      2 C2          1.1709    2.0855    0.0021 C.ar      1 <0>        -0.1224
      3 C3          2.3773    1.4107   -0.0130 C.ar      1 <0>        -0.1176
      4 C4          2.3960    0.0285   -0.0201 C.ar      1 <0>        -0.0619
      5 C5          1.2084   -0.6789   -0.0117 C.ar      1 <0>        -0.1203
      6 C6          0.0021   -0.0041    0.0020 C.ar      1 <0>        -0.1235
      7 C7          3.7112   -0.7071   -0.0376 C.3       1 <0>        -0.0769
      8 C8          4.1714   -0.9633    1.3989 C.3       1 <0>         0.0036
      9 C9          5.4865   -1.6989    1.3815 C.2       1 <0>        -0.4397
     10 C10         6.6448   -1.0130    1.4803 C.2       1 <0>         0.2577
     11 C11         7.9417   -1.7385    1.4636 C.2       1 <0>         0.3897
     12 O1          8.9844   -1.1211    1.5529 O.2       1 <0>        -0.4481
     13 C12         7.9630   -3.1990    1.3398 C.2       1 <0>        -0.3317
     14 C13         6.8047   -3.8849    1.2406 C.2       1 <0>         0.1328
     15 C14         5.5076   -3.1599    1.2633 C.2       1 <0>         0.4256
     16 O2          4.4648   -3.7777    1.1790 O.2       1 <0>        -0.4950
     17 O3          6.8243   -5.2325    1.1254 O.3       1 <0>        -0.4552
     18 O4          6.6252    0.3347    1.5940 O.3       1 <0>        -0.6286
     19 H1         -0.9591    1.9053    0.0259 H         1 <0>         0.1135
     20 H2          1.1563    3.1654    0.0076 H         1 <0>         0.1157
     21 H3          3.3051    1.9634   -0.0196 H         1 <0>         0.1229
     22 H4          1.2231   -1.7588   -0.0176 H         1 <0>         0.1208
     23 H5         -0.9258   -0.5567    0.0082 H         1 <0>         0.1151
     24 H6          3.5884   -1.6586   -0.5549 H         1 <0>         0.0633
     25 H7          4.4573   -0.1052   -0.5563 H         1 <0>         0.0673
     26 H8          4.2941   -0.0118    1.9163 H         1 <0>         0.0628
     27 H9          3.4252   -1.5652    1.9176 H         1 <0>         0.0444
     28 H10         8.9055   -3.7262    1.3277 H         1 <0>         0.1327
     29 H11         7.7128   -5.6142    1.1235 H         1 <0>         0.3922
@<TRIPOS>BOND
     1    1    6 ar
     2    1    2 ar
     3    1   19 1
     4    2    3 ar
     5    2   20 1
     6    3    4 ar
     7    3   21 1
     8    4    5 ar
     9    4    7 1
    10    5    6 ar
    11    5   22 1
    12    6   23 1
    13    7    8 1
    14    7   24 1
    15    7   25 1
    16    8    9 1
    17    8   26 1
    18    8   27 1
    19    9   15 1
    20    9   10 2
    21   10   11 1
    22   10   18 1
    23   11   12 2
    24   11   13 1
    25   13   14 2
    26   13   28 1
    27   14   15 1
    28   14   17 1
    29   15   16 2
    30   17   29 1
@<TRIPOS>MOLECULE
CHEMBL375784
   41    42     0     0     0
SMALL
USER_CHARGES

@<TRIPOS>ATOM
      1 C1         -0.0187    1.5258    0.0104 C.3       1 <0>        -0.1536
      2 C2          0.0021   -0.0041    0.0020 C.3       1 <0>        -0.1248
      3 C3         -1.4333   -0.5336    0.0129 C.3       1 <0>        -0.1151
      4 C4         -1.4126   -2.0635    0.0045 C.3       1 <0>        -0.0797
      5 C5         -2.8264   -2.5851    0.0152 C.ar      1 <0>        -0.0821
      6 C6         -3.4654   -2.8255    1.2174 C.ar      1 <0>        -0.1283
      7 C7         -4.7621   -3.3038    1.2272 C.ar      1 <0>        -0.1185
      8 C8         -5.4202   -3.5416    0.0348 C.ar      1 <0>        -0.1212
      9 C9         -4.7817   -3.3005   -1.1670 C.ar      1 <0>        -0.0668
     10 C10        -3.4861   -2.8179   -1.1768 C.ar      1 <0>        -0.1125
     11 C11        -5.4989   -3.5601   -2.4667 C.3       1 <0>        -0.0763
     12 C12        -6.2418   -2.2950   -2.9009 C.3       1 <0>        -0.0464
     13 C13        -6.9590   -2.5546   -4.2006 C.2       1 <0>        -0.2346
     14 C14        -8.2583   -2.9203   -4.1931 C.2       1 <0>         0.1136
     15 C15        -8.9657   -3.1758   -5.4747 C.2       1 <0>         0.3868
     16 O1        -10.1354   -3.5046   -5.4680 O.2       1 <0>        -0.5258
     17 C16        -8.2525   -3.0307   -6.7472 C.2       1 <0>        -0.4719
     18 C17        -6.9531   -2.6654   -6.7547 C.2       1 <0>         0.2558
     19 C18        -6.2473   -2.4041   -5.4732 C.2       1 <0>         0.3955
     20 O2         -5.0790   -2.0705   -5.4802 O.2       1 <0>        -0.4358
     21 O3         -6.2947   -2.5324   -7.9288 O.3       1 <0>        -0.6371
     22 O4         -8.9164   -3.0546   -3.0189 O.3       1 <0>        -0.4598
     23 H1          1.0039    1.9031    0.0027 H         1 <0>         0.0520
     24 H2         -0.5459    1.8868   -0.8726 H         1 <0>         0.0552
     25 H3         -0.5289    1.8773    0.9072 H         1 <0>         0.0524
     26 H4          0.5123   -0.3556   -0.8948 H         1 <0>         0.0619
     27 H5          0.5293   -0.3651    0.8851 H         1 <0>         0.0592
     28 H6         -1.9435   -0.1821    0.9097 H         1 <0>         0.0617
     29 H7         -1.9605   -0.1726   -0.8702 H         1 <0>         0.0657
     30 H8         -0.9024   -2.4150   -0.8923 H         1 <0>         0.0713
     31 H9         -0.8854   -2.4246    0.8875 H         1 <0>         0.0683
     32 H10        -2.9513   -2.6397    2.1488 H         1 <0>         0.1155
     33 H11        -5.2611   -3.4923    2.1663 H         1 <0>         0.1177
     34 H12        -6.4332   -3.9161    0.0424 H         1 <0>         0.1207
     35 H13        -2.9885   -2.6259   -2.1159 H         1 <0>         0.1225
     36 H14        -4.7744   -3.8368   -3.2326 H         1 <0>         0.0739
     37 H15        -6.2130   -4.3725   -2.3317 H         1 <0>         0.0718
     38 H16        -6.9664   -2.0182   -2.1350 H         1 <0>         0.0740
     39 H17        -5.5277   -1.4826   -3.0359 H         1 <0>         0.0718
     40 H18        -8.7666   -3.2164   -7.6786 H         1 <0>         0.1204
     41 H19        -9.8415   -3.3194   -3.1145 H         1 <0>         0.4023
@<TRIPOS>BOND
     1    1    2 1
     2    1   23 1
     3    1   24 1
     4    1   25 1
     5    2    3 1
     6    2   26 1
     7    2   27 1
     8    3    4 1
     9    3   28 1
    10    3   29 1
    11    4    5 1
    12    4   30 1
    13    4   31 1
    14    5   10 ar
    15    5    6 ar
    16    6    7 ar
    17    6   32 1
    18    7    8 ar
    19    7   33 1
    20    8    9 ar
    21    8   34 1
    22    9   10 ar
    23    9   11 1
    24   10   35 1
    25   11   12 1
    26   11   36 1
    27   11   37 1
    28   12   13 1
    29   12   38 1
    30   12   39 1
    31   13   19 1
    32   13   14 2
    33   14   15 1
    34   14   22 1
    35   15   16 2
    36   15   17 1
    37   17   18 2
    38   17   40 1
    39   18   19 1
    40   18   21 1
    41   19   20 2
    42   22   41 1
@<TRIPOS>MOLECULE
CHEMBL375784__1
   41    42     0     0     0
SMALL
USER_CHARGES

@<TRIPOS>ATOM
      1 C1         -0.0187    1.5258    0.0104 C.3       1 <0>        -0.1533
      2 C2          0.0021   -0.0041    0.0020 C.3       1 <0>        -0.1243
      3 C3          0.7421   -0.5109    1.2415 C.3       1 <0>        -0.1155
      4 C4          0.7628   -2.0407    1.2331 C.3       1 <0>        -0.0769
      5 C5          1.4917   -2.5400    2.4540 C.ar      1 <0>        -0.0866
      6 C6          2.8580   -2.7462    2.4073 C.ar      1 <0>        -0.1346
      7 C7          3.5264   -3.2041    3.5270 C.ar      1 <0>        -0.1193
      8 C8          2.8289   -3.4554    4.6940 C.ar      1 <0>        -0.1211
      9 C9          1.4632   -3.2483    4.7410 C.ar      1 <0>        -0.0587
     10 C10         0.7952   -2.7862    3.6222 C.ar      1 <0>        -0.1160
     11 C11         0.7028   -3.5226    6.0128 C.3       1 <0>        -0.0762
     12 C12         0.6664   -2.2550    6.8688 C.3       1 <0>         0.0043
     13 C13        -0.0940   -2.5293    8.1407 C.2       1 <0>        -0.4396
     14 C14         0.5710   -2.8746    9.2634 C.2       1 <0>         0.2576
     15 C15        -0.1788   -3.1446   10.5178 C.2       1 <0>         0.3897
     16 O1          0.4198   -3.4549   11.5285 O.2       1 <0>        -0.4481
     17 C16        -1.6405   -3.0361   10.5357 C.2       1 <0>        -0.3318
     18 C17        -2.3055   -2.6913    9.4128 C.2       1 <0>         0.1326
     19 C18        -1.5553   -2.4154    8.1600 C.2       1 <0>         0.4256
     20 O2         -2.1535   -2.1002    7.1506 O.2       1 <0>        -0.4948
     21 O3         -3.6545   -2.5921    9.4292 O.3       1 <0>        -0.4553
     22 O4          1.9199   -2.9751    9.2468 O.3       1 <0>        -0.6285
     23 H1          1.0039    1.9031    0.0027 H         1 <0>         0.0525
     24 H2         -0.5459    1.8868   -0.8726 H         1 <0>         0.0509
     25 H3         -0.5289    1.8773    0.9072 H         1 <0>         0.0550
     26 H4         -1.0205   -0.3814    0.0098 H         1 <0>         0.0609
     27 H5          0.5123   -0.3556   -0.8948 H         1 <0>         0.0586
     28 H6          1.7647   -0.1336    1.2338 H         1 <0>         0.0616
     29 H7          0.2319   -0.1594    2.1383 H         1 <0>         0.0659
     30 H8         -0.2598   -2.4180    1.2409 H         1 <0>         0.0690
     31 H9          1.2730   -2.3923    0.3363 H         1 <0>         0.0662
     32 H10         3.4028   -2.5499    1.4957 H         1 <0>         0.1124
     33 H11         4.5936   -3.3659    3.4903 H         1 <0>         0.1154
     34 H12         3.3511   -3.8138    5.5687 H         1 <0>         0.1219
     35 H13        -0.2714   -2.6208    3.6600 H         1 <0>         0.1195
     36 H14        -0.3154   -3.8259    5.7692 H         1 <0>         0.0627
     37 H15         1.1970   -4.3209    6.5666 H         1 <0>         0.0670
     38 H16         1.6846   -1.9518    7.1125 H         1 <0>         0.0626
     39 H17         0.1722   -1.4567    6.3150 H         1 <0>         0.0440
     40 H18        -2.1854   -3.2323   11.4473 H         1 <0>         0.1326
     41 H19        -4.0528   -2.7863   10.2887 H         1 <0>         0.3921
@<TRIPOS>BOND
     1    1    2 1
     2    1   23 1
     3    1   24 1
     4    1   25 1
     5    2    3 1
     6    2   26 1
     7    2   27 1
     8    3    4 1
     9    3   28 1
    10    3   29 1
    11    4    5 1
    12    4   30 1
    13    4   31 1
    14    5   10 ar
    15    5    6 ar
    16    6    7 ar
    17    6   32 1
    18    7    8 ar
    19    7   33 1
    20    8    9 ar
    21    8   34 1
    22    9   10 ar
    23    9   11 1
    24   10   35 1
    25   11   12 1
    26   11   36 1
    27   11   37 1
    28   12   13 1
    29   12   38 1
    30   12   39 1
    31   13   19 1
    32   13   14 2
    33   14   15 1
    34   14   22 1
    35   15   16 2
    36   15   17 1
    37   17   18 2
    38   17   40 1
    39   18   19 1
    40   18   21 1
    41   19   20 2
    42   21   41 1
@<TRIPOS>MOLECULE
CHEMBL535596
   66    69     0     0     0
SMALL
USER_CHARGES

@<TRIPOS>ATOM
      1 C1          1.4864    2.3334   -0.6869 C.3       1 <0>        -0.1727
      2 C2          1.2457    0.8289   -0.5474 C.3       1 <0>        -0.1435
      3 C3          1.8214    0.1051   -1.7662 C.3       1 <0>         0.0113
      4 H1          2.8728    0.3682   -1.8819 H         1 <0>         0.1639
      5 C4          1.6945   -1.3840   -1.5724 C.2       1 <0>         0.5089
      6 O1          0.7913   -1.9905   -2.1085 O.2       1 <0>        -0.5024
      7 N1          2.5847   -2.0418   -0.8035 N.am      1 <0>        -0.6910
      8 C5          2.4614   -3.4893   -0.6151 C.3       1 <0>         0.1356
      9 C6          3.1258   -3.8903    0.7024 C.3       1 <0>        -0.1295
     10 C7          3.1476   -5.4126    0.8367 C.3       1 <0>        -0.1280
     11 C8          4.0200   -6.0202   -0.2531 C.3       1 <0>         0.1277
     12 H2          5.0731   -5.8905   -0.0036 H         1 <0>         0.0910
     13 C9          3.7013   -7.5159   -0.4349 C.3       1 <0>        -0.1304
     14 C10         3.7965   -7.7587   -1.9574 C.3       1 <0>        -0.1243
     15 C11         4.1655   -6.3836   -2.5596 C.3       1 <0>         0.1201
     16 H3          5.2434   -6.3079   -2.7029 H         1 <0>         0.0980
     17 N2          3.7273   -5.3880   -1.5496 N.am      1 <0>        -0.5998
     18 C12         3.1384   -4.2048   -1.7583 C.2       1 <0>         0.5307
     19 O2          3.1490   -3.7079   -2.8645 O.2       1 <0>        -0.5037
     20 C13         3.4462   -6.1717   -3.8668 C.2       1 <0>         0.5225
     21 O3          2.3075   -5.7542   -3.8716 O.2       1 <0>        -0.5065
     22 N3          4.0682   -6.4462   -5.0305 N.am      1 <0>        -0.7204
     23 C14         3.3689   -6.2403   -6.3012 C.3       1 <0>         0.2341
     24 C15         3.5161   -4.8026   -6.7284 C.ar      1 <0>        -0.0790
     25 C16         4.7242   -4.1520   -6.5605 C.ar      1 <0>        -0.0946
     26 C17         4.8592   -2.8332   -6.9523 C.ar      1 <0>        -0.1206
     27 C18         3.7864   -2.1652   -7.5124 C.ar      1 <0>        -0.1232
     28 C19         2.5786   -2.8162   -7.6811 C.ar      1 <0>        -0.1210
     29 C20         2.4448   -4.1362   -7.2932 C.ar      1 <0>        -0.0997
     30 C21         3.9636   -7.1404   -7.3535 C.ar      1 <0>        -0.0941
     31 C22         5.3310   -7.3367   -7.4027 C.ar      1 <0>        -0.1124
     32 C23         5.8765   -8.1623   -8.3679 C.ar      1 <0>        -0.1134
     33 C24         5.0545   -8.7920   -9.2836 C.ar      1 <0>        -0.1126
     34 C25         3.6870   -8.5965   -9.2339 C.ar      1 <0>        -0.1122
     35 C26         3.1411   -7.7742   -8.2660 C.ar      1 <0>        -0.1039
     36 N4          1.0808    0.5072   -2.9695 N.4       1 <0>        -0.6215
     37 H4          2.5574    2.5256   -0.7513 H         1 <0>         0.0761
     38 H5          0.9970    2.6974   -1.5903 H         1 <0>         0.0562
     39 H6          1.0763    2.8491    0.1814 H         1 <0>         0.0898
     40 H7          1.7351    0.4649    0.3560 H         1 <0>         0.1167
     41 H8          0.1747    0.6367   -0.4830 H         1 <0>         0.0985
     42 H9          3.3071   -1.5567   -0.3747 H         1 <0>         0.4117
     43 H10         1.4068   -3.7637   -0.5883 H         1 <0>         0.1271
     44 H11         4.1475   -3.5109    0.7222 H         1 <0>         0.0803
     45 H12         2.5668   -3.4619    1.5344 H         1 <0>         0.0905
     46 H13         3.5480   -5.6837    1.8136 H         1 <0>         0.0990
     47 H14         2.1324   -5.7983    0.7443 H         1 <0>         0.0811
     48 H15         4.4335   -8.1267    0.0932 H         1 <0>         0.0913
     49 H16         2.6950   -7.7353   -0.0781 H         1 <0>         0.0829
     50 H17         4.5752   -8.4894   -2.1764 H         1 <0>         0.0937
     51 H18         2.8370   -8.0980   -2.3476 H         1 <0>         0.0824
     52 H19         4.9789   -6.7802   -5.0266 H         1 <0>         0.3996
     53 H20         2.3120   -6.4759   -6.1767 H         1 <0>         0.1027
     54 H21         5.5624   -4.6738   -6.1230 H         1 <0>         0.1133
     55 H22         5.8028   -2.3247   -6.8206 H         1 <0>         0.1191
     56 H23         3.8917   -1.1347   -7.8179 H         1 <0>         0.1186
     57 H24         1.7403   -2.2942   -8.1183 H         1 <0>         0.1206
     58 H25         1.5022   -4.6459   -7.4284 H         1 <0>         0.1201
     59 H26         5.9732   -6.8446   -6.6872 H         1 <0>         0.1170
     60 H27         6.9449   -8.3151   -8.4067 H         1 <0>         0.1261
     61 H28         5.4807   -9.4365  -10.0382 H         1 <0>         0.1263
     62 H29         3.0448   -9.0882   -9.9496 H         1 <0>         0.1274
     63 H30         2.0723   -7.6244   -8.2248 H         1 <0>         0.1239
     64 H31         1.1658    1.5042   -3.0992 H         1 <0>         0.4399
     65 H32         1.4605    0.0298   -3.7733 H         1 <0>         0.4431
     66 H33         0.1075    0.2637   -2.8624 H         1 <0>         0.4419
@<TRIPOS>BOND
     1    1    2 1
     2    1   37 1
     3    1   38 1
     4    1   39 1
     5    2    3 1
     6    2   40 1
     7    2   41 1
     8    3    4 1
     9    3    5 1
    10    3   36 1
    11    5    6 2
    12    5    7 am
    13    7    8 1
    14    7   42 1
    15    8   18 1
    16    8    9 1
    17    8   43 1
    18    9   10 1
    19    9   44 1
    20    9   45 1
    21   10   11 1
    22   10   46 1
    23   10   47 1
    24   11   12 1
    25   11   17 1
    26   11   13 1
    27   13   14 1
    28   13   48 1
    29   13   49 1
    30   14   15 1
    31   14   50 1
    32   14   51 1
    33   15   16 1
    34   15   17 1
    35   15   20 1
    36   17   18 am
    37   18   19 2
    38   20   21 2
    39   20   22 am
    40   22   23 1
    41   22   52 1
    42   23   24 1
    43   23   30 1
    44   23   53 1
    45   24   29 ar
    46   24   25 ar
    47   25   26 ar
    48   25   54 1
    49   26   27 ar
    50   26   55 1
    51   27   28 ar
    52   27   56 1
    53   28   29 ar
    54   28   57 1
    55   29   58 1
    56   30   35 ar
    57   30   31 ar
    58   31   32 ar
    59   31   59 1
    60   32   33 ar
    61   32   60 1
    62   33   34 ar
    63   33   61 1
    64   34   35 ar
    65   34   62 1
    66   35   63 1
    67   36   64 1
    68   36   65 1
    69   36   66 1
@<TRIPOS>MOLECULE
CHEMBL535596__1
   66    69     0     0     0
SMALL
USER_CHARGES

@<TRIPOS>ATOM
      1 C1         -0.0187    1.5258    0.0104 C.3       1 <0>        -0.1707
      2 C2          0.0021   -0.0041    0.0020 C.3       1 <0>        -0.1418
      3 C3          0.7182   -0.4975   -1.2568 C.3       1 <0>         0.0114
      4 H1          1.7103   -0.0491   -1.3098 H         1 <0>         0.1644
      5 C4          0.8473   -1.9981   -1.2057 C.2       1 <0>         0.5030
      6 O1          0.0734   -2.6948   -1.8275 O.2       1 <0>        -0.4975
      7 N1          1.8227   -2.5659   -0.4690 N.am      1 <0>        -0.6900
      8 C5          1.9481   -4.0246   -0.4194 C.3       1 <0>         0.1387
      9 C6          3.3926   -4.4004   -0.0879 C.3       1 <0>        -0.1359
     10 C7          3.7328   -3.9612    1.3360 C.3       1 <0>        -0.1299
     11 C8          2.8789   -4.7277    2.3360 C.3       1 <0>         0.1265
     12 H2          3.2617   -5.7398    2.4669 H         1 <0>         0.0935
     13 C9          2.8367   -3.9850    3.6904 C.3       1 <0>        -0.1274
     14 C10         1.5063   -4.4778    4.3091 C.3       1 <0>        -0.1290
     15 C11         0.6682   -4.9732    3.1135 C.3       1 <0>         0.1184
     16 H3          0.4576   -6.0372    3.2217 H         1 <0>         0.1022
     17 N2          1.4755   -4.7601    1.8911 N.am      1 <0>        -0.6038
     18 C12         1.0269   -4.5720    0.6414 C.2       1 <0>         0.5262
     19 O2         -0.1224   -4.8423    0.3639 O.2       1 <0>        -0.4787
     20 C13        -0.6221   -4.1989    3.0331 C.2       1 <0>         0.5146
     21 O3         -0.8674   -3.5293    2.0520 O.2       1 <0>        -0.5071
     22 N3         -1.5036   -4.2504    4.0513 N.am      1 <0>        -0.7221
     23 C14        -2.7579   -3.4977    3.9732 C.3       1 <0>         0.2395
     24 C15        -3.7869   -4.3117    3.2318 C.ar      1 <0>        -0.0911
     25 C16        -3.8810   -5.6731    3.4522 C.ar      1 <0>        -0.1013
     26 C17        -4.8248   -6.4198    2.7721 C.ar      1 <0>        -0.1173
     27 C18        -5.6749   -5.8049    1.8720 C.ar      1 <0>        -0.1150
     28 C19        -5.5815   -4.4434    1.6523 C.ar      1 <0>        -0.1177
     29 C20        -4.6405   -3.6960    2.3355 C.ar      1 <0>        -0.1025
     30 C21        -3.2562   -3.2057    5.3652 C.ar      1 <0>        -0.0931
     31 C22        -3.1497   -4.1667    6.3531 C.ar      1 <0>        -0.1117
     32 C23        -3.6067   -3.8989    7.6300 C.ar      1 <0>        -0.1119
     33 C24        -4.1697   -2.6700    7.9190 C.ar      1 <0>        -0.1128
     34 C25        -4.2754   -1.7087    6.9312 C.ar      1 <0>        -0.1131
     35 C26        -3.8145   -1.9749    5.6555 C.ar      1 <0>        -0.1056
     36 N4         -0.0570   -0.1128   -2.4438 N.4       1 <0>        -0.6213
     37 H4          1.0039    1.9031    0.0027 H         1 <0>         0.0753
     38 H5         -0.5459    1.8868   -0.8726 H         1 <0>         0.0558
     39 H6         -0.5289    1.8773    0.9072 H         1 <0>         0.0886
     40 H7          0.5293   -0.3651    0.8851 H         1 <0>         0.1143
     41 H8         -1.0205   -0.3814    0.0098 H         1 <0>         0.0995
     42 H9          2.4416   -2.0086    0.0283 H         1 <0>         0.4096
     43 H10         1.6772   -4.4454   -1.3877 H         1 <0>         0.1253
     44 H11         3.5140   -5.4803   -0.1721 H         1 <0>         0.0966
     45 H12         4.0651   -3.9064   -0.7892 H         1 <0>         0.0902
     46 H13         4.7863   -4.1590    1.5336 H         1 <0>         0.0964
     47 H14         3.5412   -2.8932    1.4406 H         1 <0>         0.0680
     48 H15         3.6828   -4.2721    4.3148 H         1 <0>         0.0937
     49 H16         2.8158   -2.9058    3.5387 H         1 <0>         0.0764
     50 H17         1.6924   -5.2953    5.0056 H         1 <0>         0.0941
     51 H18         0.9969   -3.6573    4.8144 H         1 <0>         0.0842
     52 H19        -1.3074   -4.7860    4.8360 H         1 <0>         0.4007
     53 H20        -2.5866   -2.5600    3.4445 H         1 <0>         0.0986
     54 H21        -3.2168   -6.1534    4.1554 H         1 <0>         0.1145
     55 H22        -4.8978   -7.4835    2.9437 H         1 <0>         0.1230
     56 H23        -6.4119   -6.3884    1.3401 H         1 <0>         0.1232
     57 H24        -6.2454   -3.9631    0.9488 H         1 <0>         0.1222
     58 H25        -4.5699   -2.6316    2.1666 H         1 <0>         0.1165
     59 H26        -2.7097   -5.1269    6.1273 H         1 <0>         0.1183
     60 H27        -3.5241   -4.6500    8.4016 H         1 <0>         0.1268
     61 H28        -4.5274   -2.4610    8.9163 H         1 <0>         0.1263
     62 H29        -4.7157   -0.7486    7.1569 H         1 <0>         0.1263
     63 H30        -3.8937   -1.2226    4.8847 H         1 <0>         0.1212
     64 H31        -0.1435    0.8919   -2.4780 H         1 <0>         0.4404
     65 H32         0.4152   -0.4382   -3.2739 H         1 <0>         0.4404
     66 H33        -0.9754   -0.5279   -2.3947 H         1 <0>         0.4434
@<TRIPOS>BOND
     1    1    2 1
     2    1   37 1
     3    1   38 1
     4    1   39 1
     5    2    3 1
     6    2   40 1
     7    2   41 1
     8    3    4 1
     9    3    5 1
    10    3   36 1
    11    5    6 2
    12    5    7 am
    13    7    8 1
    14    7   42 1
    15    8   18 1
    16    8    9 1
    17    8   43 1
    18    9   10 1
    19    9   44 1
    20    9   45 1
    21   10   11 1
    22   10   46 1
    23   10   47 1
    24   11   12 1
    25   11   17 1
    26   11   13 1
    27   13   14 1
    28   13   48 1
    29   13   49 1
    30   14   15 1
    31   14   50 1
    32   14   51 1
    33   15   16 1
    34   15   17 1
    35   15   20 1
    36   17   18 am
    37   18   19 2
    38   20   21 2
    39   20   22 am
    40   22   23 1
    41   22   52 1
    42   23   24 1
    43   23   30 1
    44   23   53 1
    45   24   29 ar
    46   24   25 ar
    47   25   26 ar
    48   25   54 1
    49   26   27 ar
    50   26   55 1
    51   27   28 ar
    52   27   56 1
    53   28   29 ar
    54   28   57 1
    55   29   58 1
    56   30   35 ar
    57   30   31 ar
    58   31   32 ar
    59   31   59 1
    60   32   33 ar
    61   32   60 1
    62   33   34 ar
    63   33   61 1
    64   34   35 ar
    65   34   62 1
    66   35   63 1
    67   36   64 1
    68   36   65 1
    69   36   66 1
@<TRIPOS>MOLECULE
CHEMBL360607
   81    83     0     0     0
SMALL
USER_CHARGES

@<TRIPOS>ATOM
      1 C1         -1.2794    1.0883    3.0280 C.3       1 <0>        -0.1839
      2 C2         -1.0826   -0.2015    2.2290 C.3       1 <0>         0.0086
      3 H1         -1.1337    0.0201    1.1630 H         1 <0>         0.1702
      4 C3          0.2643   -0.7937    2.5549 C.2       1 <0>         0.5040
      5 O1          0.3382   -1.9058    3.0331 O.2       1 <0>        -0.5240
      6 N1          1.3869   -0.0875    2.3149 N.am      1 <0>        -0.6829
      7 C4          2.6963   -0.6632    2.6317 C.3       1 <0>         0.1367
      8 H2          2.6163   -1.2754    3.5300 H         1 <0>         0.1143
      9 C5          3.1680   -1.5311    1.4633 C.3       1 <0>        -0.0958
     10 C6          4.4722   -2.2344    1.8445 C.3       1 <0>        -0.1585
     11 C7          2.0994   -2.5778    1.1416 C.3       1 <0>        -0.1367
     12 C8          3.6891    0.4459    2.8665 C.2       1 <0>         0.5355
     13 O2          3.6160    1.4715    2.2232 O.2       1 <0>        -0.5127
     14 N2          4.6584    0.2981    3.7912 N.am      1 <0>        -0.5920
     15 C9          4.8107   -0.8528    4.6998 C.3       1 <0>         0.0870
     16 C10         6.3127   -0.8626    5.0790 C.3       1 <0>        -0.1328
     17 C11         6.6194    0.6552    5.1759 C.3       1 <0>        -0.1287
     18 C12         5.7425    1.2551    4.0567 C.3       1 <0>         0.1209
     19 H3          5.3248    2.2066    4.3855 H         1 <0>         0.1068
     20 C13         6.5650    1.4565    2.8101 C.2       1 <0>         0.5139
     21 O3          6.2796    0.8614    1.7926 O.2       1 <0>        -0.5224
     22 N3          7.6176    2.2980    2.8259 N.am      1 <0>        -0.7012
     23 C14         8.4171    2.4939    1.6140 C.3       1 <0>         0.1757
     24 H4          8.4741    1.5564    1.0609 H         1 <0>         0.1132
     25 C15         7.7719    3.5477    0.7514 C.ar      1 <0>        -0.0872
     26 C16         7.2210    4.6745    1.3326 C.ar      1 <0>        -0.0810
     27 C17         6.6291    5.6412    0.5413 C.ar      1 <0>        -0.1143
     28 C18         6.5886    5.4813   -0.8312 C.ar      1 <0>        -0.1150
     29 C19         7.1403    4.3549   -1.4124 C.ar      1 <0>        -0.1195
     30 C20         7.7359    3.3903   -0.6215 C.ar      1 <0>        -0.1038
     31 C21         9.8061    2.9376    1.9948 C.2       1 <0>         0.5198
     32 O4         10.0992    3.0766    3.1634 O.2       1 <0>        -0.5428
     33 N4         10.7224    3.1801    1.0367 N.am      1 <0>        -0.6778
     34 C22        12.0727    3.6115    1.4069 C.3       1 <0>         0.0840
     35 H5         12.3680    3.1239    2.3360 H         1 <0>         0.0851
     36 C23        13.0528    3.2288    0.2962 C.3       1 <0>        -0.0772
     37 C24        13.1293    1.7275    0.1890 C.ar      1 <0>        -0.0720
     38 C25        14.0569    1.0284    0.9389 C.ar      1 <0>        -0.0990
     39 C26        14.1293   -0.3477    0.8421 C.ar      1 <0>        -0.1402
     40 C27        13.2700   -1.0283   -0.0082 C.ar      1 <0>         0.0870
     41 C28        12.3398   -0.3245   -0.7593 C.ar      1 <0>        -0.1424
     42 C29        12.2679    1.0511   -0.6550 C.ar      1 <0>        -0.1038
     43 O5         13.3395   -2.3820   -0.1055 O.3       1 <0>        -0.5014
     44 C30        12.0879    5.1063    1.5973 C.2       1 <0>         0.4906
     45 O6         11.0657    5.7515    1.4384 O.co2     1 <0>        -0.6775
     46 O7         13.1225    5.6705    1.9101 O.co2     1 <0>        -0.6934
     47 N5         -2.1375   -1.1613    2.5808 N.4       1 <0>        -0.6194
     48 H6         -0.4966    1.8005    2.7670 H         1 <0>         0.1133
     49 H7         -2.2536    1.5166    2.7923 H         1 <0>         0.0997
     50 H8         -1.2283    0.8667    4.0940 H         1 <0>         0.0905
     51 H9          1.3279    0.8019    1.9324 H         1 <0>         0.4186
     52 H10         3.3361   -0.9028    0.5887 H         1 <0>         0.0859
     53 H11         4.2905   -2.9084    2.6816 H         1 <0>         0.0584
     54 H12         4.8399   -2.8051    0.9917 H         1 <0>         0.0682
     55 H13         5.2155   -1.4906    2.1316 H         1 <0>         0.0766
     56 H14         1.1702   -2.0768    0.8701 H         1 <0>         0.0385
     57 H15         2.4354   -3.1962    0.3092 H         1 <0>         0.0613
     58 H16         1.9313   -3.2061    2.0163 H         1 <0>         0.0689
     59 H17         4.1958   -0.7178    5.5896 H         1 <0>         0.0770
     60 H18         4.5424   -1.7776    4.1889 H         1 <0>         0.0854
     61 H19         6.4702   -1.3551    6.0385 H         1 <0>         0.0948
     62 H20         6.9098   -1.3328    4.2976 H         1 <0>         0.0824
     63 H21         6.3277    1.0462    6.1507 H         1 <0>         0.0943
     64 H22         7.6743    0.8487    4.9816 H         1 <0>         0.0980
     65 H23         7.8458    2.7740    3.6397 H         1 <0>         0.4112
     66 H24         7.2527    4.7994    2.4048 H         1 <0>         0.1153
     67 H25         6.1981    6.5212    0.9954 H         1 <0>         0.1196
     68 H26         6.1255    6.2362   -1.4494 H         1 <0>         0.1188
     69 H27         7.1083    4.2299   -2.4847 H         1 <0>         0.1205
     70 H28         8.1703    2.5121   -1.0759 H         1 <0>         0.1185
     71 H29        10.4880    3.0689    0.1021 H         1 <0>         0.3899
     72 H30        12.7084    3.6436   -0.6511 H         1 <0>         0.0731
     73 H31        14.0402    3.6271    0.5297 H         1 <0>         0.0975
     74 H32        14.7257    1.5587    1.6007 H         1 <0>         0.1294
     75 H33        14.8546   -0.8933    1.4276 H         1 <0>         0.1256
     76 H34        11.6697   -0.8520   -1.4220 H         1 <0>         0.1236
     77 H35        11.5410    1.5990   -1.2362 H         1 <0>         0.1214
     78 H36        12.7724   -2.8511    0.5217 H         1 <0>         0.3847
     79 H37        -3.0394   -0.7648    2.3626 H         1 <0>         0.4425
     80 H38        -2.0077   -2.0119    2.0538 H         1 <0>         0.4425
     81 H39        -2.0902   -1.3665    3.5675 H         1 <0>         0.4398
@<TRIPOS>BOND
     1    1    2 1
     2    1   48 1
     3    1   49 1
     4    1   50 1
     5    2    3 1
     6    2    4 1
     7    2   47 1
     8    4    5 2
     9    4    6 am
    10    6    7 1
    11    6   51 1
    12    7    8 1
    13    7    9 1
    14    7   12 1
    15    9   10 1
    16    9   11 1
    17    9   52 1
    18   10   53 1
    19   10   54 1
    20   10   55 1
    21   11   56 1
    22   11   57 1
    23   11   58 1
    24   12   13 2
    25   12   14 am
    26   14   18 1
    27   14   15 1
    28   15   16 1
    29   15   59 1
    30   15   60 1
    31   16   17 1
    32   16   61 1
    33   16   62 1
    34   17   18 1
    35   17   63 1
    36   17   64 1
    37   18   19 1
    38   18   20 1
    39   20   21 2
    40   20   22 am
    41   22   23 1
    42   22   65 1
    43   23   24 1
    44   23   25 1
    45   23   31 1
    46   25   30 ar
    47   25   26 ar
    48   26   27 ar
    49   26   66 1
    50   27   28 ar
    51   27   67 1
    52   28   29 ar
    53   28   68 1
    54   29   30 ar
    55   29   69 1
    56   30   70 1
    57   31   32 2
    58   31   33 am
    59   33   34 1
    60   33   71 1
    61   34   35 1
    62   34   36 1
    63   34   44 1
    64   36   37 1
    65   36   72 1
    66   36   73 1
    67   37   42 ar
    68   37   38 ar
    69   38   39 ar
    70   38   74 1
    71   39   40 ar
    72   39   75 1
    73   40   41 ar
    74   40   43 1
    75   41   42 ar
    76   41   76 1
    77   42   77 1
    78   43   78 1
    79   44   45 2
    80   44   46 1
    81   47   79 1
    82   47   80 1
    83   47   81 1
@<TRIPOS>MOLECULE
CHEMBL583950
   78    81     0     0     0
SMALL
USER_CHARGES

@<TRIPOS>ATOM
      1 C1         -0.0187    1.5258    0.0104 C.3       1 <0>        -0.1703
      2 C2          0.0021   -0.0041    0.0020 C.3       1 <0>        -0.1417
      3 C3         -1.4333   -0.5336    0.0129 C.3       1 <0>         0.0107
      4 H1         -1.9862   -0.1019   -0.8214 H         1 <0>         0.1652
      5 C4         -1.4159   -2.0348   -0.1192 C.2       1 <0>         0.5042
      6 O1         -1.5501   -2.7316    0.8643 O.2       1 <0>        -0.4929
      7 N1         -1.2512   -2.6028   -1.3302 N.am      1 <0>        -0.6904
      8 C5         -1.2344   -4.0592   -1.4584 C.3       1 <0>         0.1559
      9 H2         -1.9415   -4.4722   -0.7218 H         1 <0>         0.1329
     10 C6         -1.6918   -4.4868   -2.8490 C.3       1 <0>        -0.1170
     11 H3         -1.3116   -5.4883   -3.0665 H         1 <0>         0.1076
     12 C7         -1.2059   -3.5091   -3.9135 C.3       1 <0>        -0.1260
     13 C8          0.3115   -3.3677   -3.8835 C.3       1 <0>        -0.1383
     14 C9          0.9536   -4.7013   -3.5066 C.3       1 <0>         0.1285
     15 H4          0.3468   -5.5249   -3.8879 H         1 <0>         0.0868
     16 C10         2.3644   -4.7755   -4.1157 C.3       1 <0>        -0.1270
     17 C11         3.1981   -5.5021   -3.0430 C.3       1 <0>        -0.1275
     18 C12         2.4736   -5.1897   -1.7234 C.3       1 <0>         0.1179
     19 H5          2.4728   -6.0728   -1.0808 H         1 <0>         0.1098
     20 N2          1.0888   -4.8071   -2.0515 N.am      1 <0>        -0.5817
     21 C13         0.1305   -4.5892   -1.1350 C.2       1 <0>         0.5248
     22 O2          0.3843   -4.8447    0.0273 O.2       1 <0>        -0.5053
     23 C14         3.1740   -4.0517   -1.0202 C.2       1 <0>         0.5196
     24 O3          2.5812   -3.0160   -0.8035 O.2       1 <0>        -0.5276
     25 N3          4.4579   -4.1869   -0.6333 N.am      1 <0>        -0.7201
     26 C15         5.1375   -3.0828    0.0490 C.3       1 <0>         0.2371
     27 C16         4.8375   -3.1435    1.5246 C.ar      1 <0>        -0.0903
     28 C17         4.8074   -4.3633    2.1742 C.ar      1 <0>        -0.0993
     29 C18         4.5322   -4.4190    3.5277 C.ar      1 <0>        -0.1160
     30 C19         4.2876   -3.2547    4.2318 C.ar      1 <0>        -0.1156
     31 C20         4.3187   -2.0348    3.5824 C.ar      1 <0>        -0.1201
     32 C21         4.5981   -1.9788    2.2297 C.ar      1 <0>        -0.1048
     33 C22         6.6245   -3.1984   -0.1665 C.ar      1 <0>        -0.0949
     34 C23         7.2332   -4.4391   -0.1343 C.ar      1 <0>        -0.1124
     35 C24         8.5973   -4.5451   -0.3319 C.ar      1 <0>        -0.1121
     36 C25         9.3525   -3.4104   -0.5622 C.ar      1 <0>        -0.1120
     37 C26         8.7437   -2.1698   -0.5953 C.ar      1 <0>        -0.1126
     38 C27         7.3790   -2.0642   -0.4019 C.ar      1 <0>        -0.1045
     39 C28        -3.2266   -4.5365   -2.8781 C.3       1 <0>         0.1304
     40 N4         -3.6738   -5.0603   -4.1711 N.pl3     1 <0>        -0.6874
     41 C29        -4.9907   -5.1937   -4.4251 C.2       1 <0>         0.5718
     42 S1         -6.1408   -4.7511   -3.2367 S.2       1 <0>        -0.6332
     43 N5         -5.4021   -5.6756   -5.6146 N.pl3     1 <0>        -0.8002
     44 N6         -2.0833   -0.1607    1.2764 N.4       1 <0>        -0.6216
     45 H6          1.0039    1.9031    0.0027 H         1 <0>         0.0886
     46 H7         -0.5459    1.8868   -0.8726 H         1 <0>         0.0751
     47 H8         -0.5289    1.8773    0.9072 H         1 <0>         0.0555
     48 H9          0.5123   -0.3556   -0.8948 H         1 <0>         0.1169
     49 H10         0.5293   -0.3651    0.8851 H         1 <0>         0.0992
     50 H11        -1.1439   -2.0455   -2.1168 H         1 <0>         0.4110
     51 H12        -1.5046   -3.8835   -4.9012 H         1 <0>         0.0792
     52 H13        -1.6718   -2.5339   -3.7701 H         1 <0>         0.0754
     53 H14         0.6658   -3.0677   -4.8738 H         1 <0>         0.0899
     54 H15         0.6036   -2.6055   -3.1628 H         1 <0>         0.0764
     55 H16         2.3519   -5.3518   -5.0397 H         1 <0>         0.0945
     56 H17         2.7583   -3.7764   -4.2932 H         1 <0>         0.0820
     57 H18         3.2075   -6.5741   -3.2300 H         1 <0>         0.0945
     58 H19         4.2141   -5.1078   -3.0239 H         1 <0>         0.0918
     59 H20         4.9321   -5.0152   -0.8065 H         1 <0>         0.4016
     60 H21         4.7845   -2.1339   -0.3548 H         1 <0>         0.1012
     61 H22         4.9984   -5.2729    1.6242 H         1 <0>         0.1150
     62 H23         4.5079   -5.3721    4.0351 H         1 <0>         0.1233
     63 H24         4.0720   -3.2983    5.2891 H         1 <0>         0.1228
     64 H25         4.1273   -1.1253    4.1324 H         1 <0>         0.1214
     65 H26         4.6260   -1.0254    1.7231 H         1 <0>         0.1178
     66 H27         6.6432   -5.3255    0.0457 H         1 <0>         0.1178
     67 H28         9.0729   -5.5143   -0.3061 H         1 <0>         0.1268
     68 H29        10.4183   -3.4932   -0.7159 H         1 <0>         0.1265
     69 H30         9.3338   -1.2833   -0.7749 H         1 <0>         0.1270
     70 H31         6.9028   -1.0954   -0.4315 H         1 <0>         0.1223
     71 H32        -3.5843   -5.1863   -2.0794 H         1 <0>         0.0956
     72 H33        -3.6254   -3.5321   -2.7354 H         1 <0>         0.0912
     73 H34        -3.0221   -5.3111   -4.8444 H         1 <0>         0.3989
     74 H35        -4.7504   -5.9264   -6.2879 H         1 <0>         0.3982
     75 H36        -6.3499   -5.7716   -5.7974 H         1 <0>         0.4366
     76 H37        -2.0949    0.8443    1.3648 H         1 <0>         0.4408
     77 H38        -3.0299   -0.5100    1.2835 H         1 <0>         0.4416
     78 H39        -1.5715   -0.5604    2.0487 H         1 <0>         0.4431
@<TRIPOS>BOND
     1    1    2 1
     2    1   45 1
     3    1   46 1
     4    1   47 1
     5    2    3 1
     6    2   48 1
     7    2   49 1
     8    3    4 1
     9    3    5 1
    10    3   44 1
    11    5    6 2
    12    5    7 am
    13    7    8 1
    14    7   50 1
    15    8    9 1
    16    8   21 1
    17    8   10 1
    18   10   11 1
    19   10   12 1
    20   10   39 1
    21   12   13 1
    22   12   51 1
    23   12   52 1
    24   13   14 1
    25   13   53 1
    26   13   54 1
    27   14   15 1
    28   14   20 1
    29   14   16 1
    30   16   17 1
    31   16   55 1
    32   16   56 1
    33   17   18 1
    34   17   57 1
    35   17   58 1
    36   18   19 1
    37   18   20 1
    38   18   23 1
    39   20   21 am
    40   21   22 2
    41   23   24 2
    42   23   25 am
    43   25   26 1
    44   25   59 1
    45   26   27 1
    46   26   33 1
    47   26   60 1
    48   27   32 ar
    49   27   28 ar
    50   28   29 ar
    51   28   61 1
    52   29   30 ar
    53   29   62 1
    54   30   31 ar
    55   30   63 1
    56   31   32 ar
    57   31   64 1
    58   32   65 1
    59   33   38 ar
    60   33   34 ar
    61   34   35 ar
    62   34   66 1
    63   35   36 ar
    64   35   67 1
    65   36   37 ar
    66   36   68 1
    67   37   38 ar
    68   37   69 1
    69   38   70 1
    70   39   40 1
    71   39   71 1
    72   39   72 1
    73   40   41 1
    74   40   73 1
    75   41   42 2
    76   41   43 1
    77   43   74 1
    78   43   75 1
    79   44   76 1
    80   44   77 1
    81   44   78 1
@<TRIPOS>MOLECULE
CHEMBL183992
   74    76     0     0     0
SMALL
USER_CHARGES

@<TRIPOS>ATOM
      1 C1          0.6057    2.0735   -0.3993 C.3       1 <0>        -0.1636
      2 C2          0.2164    0.6436   -0.0189 C.3       1 <0>        -0.1030
      3 C3          1.0539    0.1882    1.1778 C.3       1 <0>        -0.1693
      4 C4         -1.2676    0.6003    0.3511 C.3       1 <0>         0.0134
      5 H1         -1.4706    1.3398    1.1257 H         1 <0>         0.1564
      6 C5         -2.0984    0.9086   -0.8678 C.2       1 <0>         0.5173
      7 O1         -2.3609    0.0294   -1.6610 O.2       1 <0>        -0.4948
      8 N1         -2.5497    2.1612   -1.0766 N.am      1 <0>        -0.5762
      9 C6         -2.3899    3.2975   -0.1509 C.3       1 <0>         0.0813
     10 C7         -2.4858    4.5565   -1.0483 C.3       1 <0>        -0.1319
     11 C8         -3.5667    4.1259   -2.0747 C.3       1 <0>        -0.1272
     12 C9         -3.2773    2.6225   -2.2679 C.3       1 <0>         0.1214
     13 H2         -4.2154    2.0758   -2.3641 H         1 <0>         0.1078
     14 C10        -2.4313    2.4146   -3.4976 C.2       1 <0>         0.5210
     15 O2         -1.2327    2.2640   -3.3906 O.2       1 <0>        -0.5347
     16 N2         -3.0067    2.3962   -4.7162 N.am      1 <0>        -0.6903
     17 C11        -2.2016    2.0926   -5.9019 C.3       1 <0>         0.1375
     18 H3         -1.1739    1.8889   -5.6009 H         1 <0>         0.1200
     19 C12        -2.7786    0.8649   -6.6095 C.3       1 <0>        -0.0908
     20 C13        -2.6156   -0.3461   -5.7275 C.ar      1 <0>        -0.0667
     21 C14        -1.4191   -1.0384   -5.7182 C.ar      1 <0>        -0.1116
     22 C15        -1.2696   -2.1492   -4.9092 C.ar      1 <0>        -0.1172
     23 C16        -2.3164   -2.5675   -4.1091 C.ar      1 <0>        -0.1249
     24 C17        -3.5125   -1.8747   -4.1177 C.ar      1 <0>        -0.1063
     25 C18        -3.6606   -0.7613   -4.9236 C.ar      1 <0>        -0.1053
     26 C19        -2.2258    3.2712   -6.8408 C.2       1 <0>         0.5077
     27 O3         -2.8537    4.2667   -6.5483 O.2       1 <0>        -0.5409
     28 N3         -1.5496    3.2189   -8.0055 N.am      1 <0>        -0.6848
     29 C20        -1.5731    4.3646   -8.9182 C.3       1 <0>         0.0849
     30 H4         -1.5980    5.2887   -8.3407 H         1 <0>         0.0837
     31 C21        -0.3190    4.3444   -9.7945 C.3       1 <0>        -0.0775
     32 C22         0.8999    4.5469   -8.9318 C.ar      1 <0>        -0.0715
     33 C23         1.3666    5.8249   -8.6856 C.ar      1 <0>        -0.0992
     34 C24         2.4841    6.0131   -7.8955 C.ar      1 <0>        -0.1402
     35 C25         3.1378    4.9186   -7.3485 C.ar      1 <0>         0.0868
     36 C26         2.6672    3.6373   -7.5966 C.ar      1 <0>        -0.1420
     37 C27         1.5463    3.4547   -8.3832 C.ar      1 <0>        -0.1031
     38 O4          4.2376    5.1011   -6.5713 O.3       1 <0>        -0.5009
     39 C28        -2.7981    4.2854   -9.7924 C.2       1 <0>         0.4913
     40 O5         -3.5791    3.3579   -9.6648 O.co2     1 <0>        -0.6832
     41 O6         -3.0081    5.1488  -10.6272 O.co2     1 <0>        -0.6909
     42 N4         -1.6088   -0.7383    0.8506 N.4       1 <0>        -0.6233
     43 H5          1.6632    2.1046   -0.6617 H         1 <0>         0.0813
     44 H6          0.0099    2.3974   -1.2527 H         1 <0>         0.0890
     45 H7          0.4212    2.7372    0.4454 H         1 <0>         0.0651
     46 H8          0.3996   -0.0199   -0.8641 H         1 <0>         0.1061
     47 H9          0.8707    0.8517    2.0230 H         1 <0>         0.0748
     48 H10         0.7766   -0.8305    1.4488 H         1 <0>         0.0528
     49 H11         2.1111    0.2191    0.9142 H         1 <0>         0.0915
     50 H12        -3.1890    3.2982    0.5904 H         1 <0>         0.0854
     51 H13        -1.4171    3.2539    0.3388 H         1 <0>         0.0859
     52 H14        -2.8157    5.4218   -0.4734 H         1 <0>         0.0983
     53 H15        -1.5354    4.7572   -1.5427 H         1 <0>         0.0866
     54 H16        -4.5667    4.2809   -1.6697 H         1 <0>         0.0966
     55 H17        -3.4424    4.6640   -3.0144 H         1 <0>         0.1023
     56 H18        -3.9539    2.5840   -4.8083 H         1 <0>         0.4077
     57 H19        -3.8372    1.0267   -6.8126 H         1 <0>         0.0895
     58 H20        -2.2489    0.7044   -7.5486 H         1 <0>         0.0961
     59 H21        -0.6013   -0.7116   -6.3433 H         1 <0>         0.1190
     60 H22        -0.3350   -2.6905   -4.9025 H         1 <0>         0.1154
     61 H23        -2.1998   -3.4358   -3.4776 H         1 <0>         0.1106
     62 H24        -4.3305   -2.2017   -3.4929 H         1 <0>         0.1114
     63 H25        -4.5939   -0.2179   -4.9275 H         1 <0>         0.1146
     64 H26        -1.0473    2.4227   -8.2394 H         1 <0>         0.3881
     65 H27        -0.2476    3.3838  -10.3045 H         1 <0>         0.0736
     66 H28        -0.3787    5.1442  -10.5326 H         1 <0>         0.0973
     67 H29         0.8574    6.6767   -9.1116 H         1 <0>         0.1293
     68 H30         2.8487    7.0116   -7.7041 H         1 <0>         0.1255
     69 H31         3.1744    2.7836   -7.1720 H         1 <0>         0.1228
     70 H32         1.1770    2.4577   -8.5731 H         1 <0>         0.1213
     71 H33         4.0412    5.2045   -5.6301 H         1 <0>         0.3838
     72 H34        -2.5875   -0.7669    1.0946 H         1 <0>         0.4373
     73 H35        -1.4209   -1.4229    0.1335 H         1 <0>         0.4430
     74 H36        -1.0526   -0.9447    1.6667 H         1 <0>         0.4389
@<TRIPOS>BOND
     1    1    2 1
     2    1   43 1
     3    1   44 1
     4    1   45 1
     5    2    3 1
     6    2    4 1
     7    2   46 1
     8    3   47 1
     9    3   48 1
    10    3   49 1
    11    4    5 1
    12    4    6 1
    13    4   42 1
    14    6    7 2
    15    6    8 am
    16    8   12 1
    17    8    9 1
    18    9   10 1
    19    9   50 1
    20    9   51 1
    21   10   11 1
    22   10   52 1
    23   10   53 1
    24   11   12 1
    25   11   54 1
    26   11   55 1
    27   12   13 1
    28   12   14 1
    29   14   15 2
    30   14   16 am
    31   16   17 1
    32   16   56 1
    33   17   18 1
    34   17   19 1
    35   17   26 1
    36   19   20 1
    37   19   57 1
    38   19   58 1
    39   20   25 ar
    40   20   21 ar
    41   21   22 ar
    42   21   59 1
    43   22   23 ar
    44   22   60 1
    45   23   24 ar
    46   23   61 1
    47   24   25 ar
    48   24   62 1
    49   25   63 1
    50   26   27 2
    51   26   28 am
    52   28   29 1
    53   28   64 1
    54   29   30 1
    55   29   31 1
    56   29   39 1
    57   31   32 1
    58   31   65 1
    59   31   66 1
    60   32   37 ar
    61   32   33 ar
    62   33   34 ar
    63   33   67 1
    64   34   35 ar
    65   34   68 1
    66   35   36 ar
    67   35   38 1
    68   36   37 ar
    69   36   69 1
    70   37   70 1
    71   38   71 1
    72   39   40 2
    73   39   41 1
    74   42   72 1
    75   42   73 1
    76   42   74 1
@<TRIPOS>MOLECULE
CHEMBL181003
   55    56     0     0     0
SMALL
USER_CHARGES

@<TRIPOS>ATOM
      1 C1          3.2350    1.1684   -0.4048 C.3       1 <0>        -0.1838
      2 C2          2.4772   -0.1401   -0.1713 C.3       1 <0>         0.0090
      3 H1          1.5742    0.0610    0.4052 H         1 <0>         0.1706
      4 C3          2.1011   -0.7465   -1.4987 C.2       1 <0>         0.5049
      5 O1          2.5062   -1.8499   -1.7978 O.2       1 <0>        -0.5212
      6 N1          1.3147   -0.0628   -2.3533 N.am      1 <0>        -0.6855
      7 C4          0.9491   -0.6524   -3.6437 C.3       1 <0>         0.1366
      8 H2          1.7822   -1.2452   -4.0214 H         1 <0>         0.1155
      9 C5         -0.2764   -1.5508   -3.4650 C.3       1 <0>        -0.0961
     10 C6         -0.5806   -2.2664   -4.7827 C.3       1 <0>        -0.1584
     11 C7          0.0053   -2.5869   -2.3751 C.3       1 <0>        -0.1382
     12 C8          0.6284    0.4456   -4.6248 C.2       1 <0>         0.5388
     13 O2          0.0822    1.4591   -4.2435 O.2       1 <0>        -0.5177
     14 N2          0.9484    0.3012   -5.9260 N.am      1 <0>        -0.5940
     15 C9          1.6878   -0.8335   -6.5082 C.3       1 <0>         0.0854
     16 C10         1.2658   -0.8591   -7.9985 C.3       1 <0>        -0.1337
     17 C11         1.1583    0.6554   -8.3179 C.3       1 <0>        -0.1263
     18 C12         0.6125    1.2463   -7.0010 C.3       1 <0>         0.1196
     19 H3          1.0820    2.2106   -6.8070 H         1 <0>         0.1074
     20 C13        -0.8829    1.4100   -7.0907 C.2       1 <0>         0.5098
     21 O3         -1.6064    0.7991   -6.3328 O.2       1 <0>        -0.5179
     22 N3         -1.4164    2.2351   -8.0132 N.am      1 <0>        -0.7250
     23 C14        -2.8701    2.3942   -8.1005 C.3       1 <0>         0.2116
     24 C15        -3.2039    3.3642   -9.2045 C.2       1 <0>        -0.1840
     25 C16        -3.4445    3.1158  -10.5151 C.2       1 <0>        -0.1259
     26 C17        -3.7350    4.1741  -11.3556 C.2       1 <0>        -0.1657
     27 C18        -3.7708    5.4289  -10.8443 C.2       1 <0>        -0.1564
     28 S1         -3.3929    5.1376   -9.1239 S.3       1 <0>         0.0527
     29 N4          3.3331   -1.0761    0.5698 N.4       1 <0>        -0.6197
     30 H4          4.1380    0.9674   -0.9813 H         1 <0>         0.0907
     31 H5          2.6000    1.8629   -0.9548 H         1 <0>         0.1121
     32 H6          3.5070    1.6070    0.5552 H         1 <0>         0.1009
     33 H7          0.9907    0.8196   -2.1141 H         1 <0>         0.4184
     34 H8         -1.1335   -0.9427   -3.1756 H         1 <0>         0.0852
     35 H9          0.2520   -2.9207   -5.0414 H         1 <0>         0.0599
     36 H10        -1.4883   -2.8597   -4.6728 H         1 <0>         0.0693
     37 H11        -0.7221   -1.5288   -5.5726 H         1 <0>         0.0734
     38 H12         0.2220   -2.0770   -1.4364 H         1 <0>         0.0397
     39 H13        -0.8678   -3.2269   -2.2478 H         1 <0>         0.0628
     40 H14         0.8624   -3.1949   -2.6646 H         1 <0>         0.0702
     41 H15         2.7621   -0.6712   -6.4209 H         1 <0>         0.0795
     42 H16         1.4028   -1.7640   -6.0172 H         1 <0>         0.0882
     43 H17         2.0303   -1.3347   -8.6129 H         1 <0>         0.0970
     44 H18         0.3027   -1.3541   -8.1234 H         1 <0>         0.0828
     45 H19         2.1383    1.0702   -8.5540 H         1 <0>         0.0954
     46 H20         0.4581    0.8285   -9.1350 H         1 <0>         0.0925
     47 H21        -0.8378    2.7237   -8.6194 H         1 <0>         0.4039
     48 H22        -3.3291    1.4289   -8.3138 H         1 <0>         0.0916
     49 H23        -3.2513    2.7764   -7.1535 H         1 <0>         0.0838
     50 H24        -3.4094    2.1062  -10.8971 H         1 <0>         0.1354
     51 H25        -3.9303    4.0037  -12.4040 H         1 <0>         0.1385
     52 H26        -3.9780    6.3623  -11.3465 H         1 <0>         0.1896
     53 H27         3.5848   -0.6700    1.4585 H         1 <0>         0.4437
     54 H28         2.8333   -1.9390    0.7238 H         1 <0>         0.4430
     55 H29         4.1689   -1.2622    0.0362 H         1 <0>         0.4403
@<TRIPOS>BOND
     1    1    2 1
     2    1   30 1
     3    1   31 1
     4    1   32 1
     5    2    3 1
     6    2    4 1
     7    2   29 1
     8    4    5 2
     9    4    6 am
    10    6    7 1
    11    6   33 1
    12    7    8 1
    13    7    9 1
    14    7   12 1
    15    9   10 1
    16    9   11 1
    17    9   34 1
    18   10   35 1
    19   10   36 1
    20   10   37 1
    21   11   38 1
    22   11   39 1
    23   11   40 1
    24   12   13 2
    25   12   14 am
    26   14   18 1
    27   14   15 1
    28   15   16 1
    29   15   41 1
    30   15   42 1
    31   16   17 1
    32   16   43 1
    33   16   44 1
    34   17   18 1
    35   17   45 1
    36   17   46 1
    37   18   19 1
    38   18   20 1
    39   20   21 2
    40   20   22 am
    41   22   23 1
    42   22   47 1
    43   23   24 1
    44   23   48 1
    45   23   49 1
    46   24   28 1
    47   24   25 2
    48   25   26 1
    49   25   50 1
    50   26   27 2
    51   26   51 1
    52   27   28 1
    53   27   52 1
    54   29   53 1
    55   29   54 1
    56   29   55 1
@<TRIPOS>MOLECULE
CHEMBL182034
   55    56     0     0     0
SMALL
USER_CHARGES

@<TRIPOS>ATOM
      1 C1          3.2350    1.1684   -0.4048 C.3       1 <0>        -0.1838
      2 C2          2.4772   -0.1401   -0.1713 C.3       1 <0>         0.0090
      3 H1          1.5742    0.0610    0.4052 H         1 <0>         0.1706
      4 C3          2.1011   -0.7465   -1.4987 C.2       1 <0>         0.5049
      5 O1          2.5062   -1.8499   -1.7978 O.2       1 <0>        -0.5211
      6 N1          1.3147   -0.0628   -2.3533 N.am      1 <0>        -0.6856
      7 C4          0.9491   -0.6524   -3.6437 C.3       1 <0>         0.1366
      8 H2          1.7822   -1.2452   -4.0214 H         1 <0>         0.1156
      9 C5         -0.2764   -1.5508   -3.4650 C.3       1 <0>        -0.0963
     10 C6         -0.5806   -2.2664   -4.7827 C.3       1 <0>        -0.1585
     11 C7          0.0053   -2.5869   -2.3751 C.3       1 <0>        -0.1382
     12 C8          0.6284    0.4456   -4.6248 C.2       1 <0>         0.5387
     13 O2          0.0822    1.4591   -4.2435 O.2       1 <0>        -0.5176
     14 N2          0.9484    0.3012   -5.9260 N.am      1 <0>        -0.5941
     15 C9          1.6878   -0.8335   -6.5082 C.3       1 <0>         0.0853
     16 C10         1.2658   -0.8591   -7.9985 C.3       1 <0>        -0.1337
     17 C11         1.1583    0.6554   -8.3179 C.3       1 <0>        -0.1264
     18 C12         0.6125    1.2463   -7.0010 C.3       1 <0>         0.1198
     19 H3          1.0820    2.2106   -6.8070 H         1 <0>         0.1077
     20 C13        -0.8829    1.4100   -7.0907 C.2       1 <0>         0.5105
     21 O3         -1.6064    0.7991   -6.3328 O.2       1 <0>        -0.5173
     22 N3         -1.4164    2.2351   -8.0132 N.am      1 <0>        -0.7259
     23 C14        -2.8701    2.3942   -8.1005 C.3       1 <0>         0.2073
     24 C15        -3.2039    3.3642   -9.2045 C.2       1 <0>        -0.0489
     25 C16        -3.4312    3.0438  -10.4910 C.2       1 <0>        -0.1771
     26 C17        -3.7051    4.2523  -11.1718 C.2       1 <0>        -0.2179
     27 C18        -3.6289    5.2388  -10.2606 C.2       1 <0>        -0.0224
     28 O4         -3.3307    4.6944   -9.0696 O.3       1 <0>        -0.1719
     29 N4          3.3331   -1.0761    0.5698 N.4       1 <0>        -0.6197
     30 H4          4.1380    0.9674   -0.9813 H         1 <0>         0.0907
     31 H5          2.6000    1.8629   -0.9548 H         1 <0>         0.1121
     32 H6          3.5070    1.6070    0.5552 H         1 <0>         0.1009
     33 H7          0.9907    0.8196   -2.1141 H         1 <0>         0.4184
     34 H8         -1.1335   -0.9427   -3.1756 H         1 <0>         0.0853
     35 H9          0.2520   -2.9207   -5.0414 H         1 <0>         0.0600
     36 H10        -1.4883   -2.8597   -4.6728 H         1 <0>         0.0694
     37 H11        -0.7221   -1.5288   -5.5726 H         1 <0>         0.0733
     38 H12         0.2220   -2.0770   -1.4364 H         1 <0>         0.0397
     39 H13        -0.8678   -3.2269   -2.2478 H         1 <0>         0.0628
     40 H14         0.8624   -3.1949   -2.6646 H         1 <0>         0.0702
     41 H15         2.7621   -0.6712   -6.4209 H         1 <0>         0.0796
     42 H16         1.4028   -1.7640   -6.0172 H         1 <0>         0.0883
     43 H17         2.0303   -1.3347   -8.6129 H         1 <0>         0.0972
     44 H18         0.3027   -1.3541   -8.1234 H         1 <0>         0.0830
     45 H19         2.1383    1.0702   -8.5540 H         1 <0>         0.0956
     46 H20         0.4581    0.8285   -9.1350 H         1 <0>         0.0927
     47 H21        -0.8378    2.7237   -8.6194 H         1 <0>         0.4047
     48 H22        -3.3291    1.4289   -8.3138 H         1 <0>         0.1005
     49 H23        -3.2513    2.7764   -7.1535 H         1 <0>         0.0862
     50 H24        -3.4081    2.0536  -10.9214 H         1 <0>         0.1515
     51 H25        -3.9317    4.3623  -12.2220 H         1 <0>         0.1535
     52 H26        -3.7849    6.2900  -10.4532 H         1 <0>         0.2077
     53 H27         3.5848   -0.6700    1.4585 H         1 <0>         0.4437
     54 H28         2.8333   -1.9390    0.7238 H         1 <0>         0.4430
     55 H29         4.1689   -1.2622    0.0362 H         1 <0>         0.4402
@<TRIPOS>BOND
     1    1    2 1
     2    1   30 1
     3    1   31 1
     4    1   32 1
     5    2    3 1
     6    2    4 1
     7    2   29 1
     8    4    5 2
     9    4    6 am
    10    6    7 1
    11    6   33 1
    12    7    8 1
    13    7    9 1
    14    7   12 1
    15    9   10 1
    16    9   11 1
    17    9   34 1
    18   10   35 1
    19   10   36 1
    20   10   37 1
    21   11   38 1
    22   11   39 1
    23   11   40 1
    24   12   13 2
    25   12   14 am
    26   14   18 1
    27   14   15 1
    28   15   16 1
    29   15   41 1
    30   15   42 1
    31   16   17 1
    32   16   43 1
    33   16   44 1
    34   17   18 1
    35   17   45 1
    36   17   46 1
    37   18   19 1
    38   18   20 1
    39   20   21 2
    40   20   22 am
    41   22   23 1
    42   22   47 1
    43   23   24 1
    44   23   48 1
    45   23   49 1
    46   24   28 1
    47   24   25 2
    48   25   26 1
    49   25   50 1
    50   26   27 2
    51   26   51 1
    52   27   28 1
    53   27   52 1
    54   29   53 1
    55   29   54 1
    56   29   55 1
@<TRIPOS>MOLECULE
CHEMBL361282
   68    70     0     0     0
SMALL
USER_CHARGES

@<TRIPOS>ATOM
      1 C1          1.9734    2.3113   -0.6065 C.3       1 <0>        -0.1825
      2 C2          1.3832    0.9516   -0.2277 C.3       1 <0>         0.0047
      3 H1          0.3456    1.0791    0.0809 H         1 <0>         0.1670
      4 C3          1.4435    0.0287   -1.4176 C.2       1 <0>         0.5050
      5 O1          2.0687   -1.0083   -1.3496 O.2       1 <0>        -0.5197
      6 N1          0.8026    0.3558   -2.5572 N.am      1 <0>        -0.6833
      7 C4          0.8613   -0.5414   -3.7139 C.3       1 <0>         0.1416
      8 H2          1.8403   -1.0188   -3.7541 H         1 <0>         0.1128
      9 C5          0.6365    0.2509   -4.9760 C.2       1 <0>         0.5372
     10 O2         -0.2136    1.1154   -5.0060 O.2       1 <0>        -0.5069
     11 N2          1.3802   -0.0013   -6.0714 N.am      1 <0>        -0.5948
     12 C6          2.3849   -1.0724   -6.1998 C.3       1 <0>         0.0872
     13 C7          2.4819   -1.3448   -7.7217 C.3       1 <0>        -0.1329
     14 C8          2.3269    0.0848   -8.3045 C.3       1 <0>        -0.1263
     15 C9          1.3192    0.7423   -7.3382 C.3       1 <0>         0.1196
     16 H3          1.5947    1.7835   -7.1706 H         1 <0>         0.1031
     17 C10        -0.0718    0.6632   -7.9125 C.2       1 <0>         0.5106
     18 O3         -0.9359    0.0466   -7.3259 O.2       1 <0>        -0.5116
     19 N3         -0.3557    1.2778   -9.0779 N.am      1 <0>        -0.7180
     20 C11        -1.7079    1.2009   -9.6362 C.3       1 <0>         0.1873
     21 H4         -2.1554    0.2331   -9.4099 H         1 <0>         0.0968
     22 C12        -1.6712    1.4303  -11.1621 C.3       1 <0>        -0.1269
     23 C13        -1.9048    2.9518  -11.2742 C.3       1 <0>        -0.0859
     24 C14        -2.6801    3.3264  -10.0293 C.ar      1 <0>        -0.0880
     25 C15        -2.5677    2.3186   -9.0859 C.ar      1 <0>        -0.1174
     26 C16        -3.1999    2.4443   -7.8606 C.ar      1 <0>        -0.0799
     27 C17        -3.9441    3.5725   -7.5748 C.ar      1 <0>        -0.1262
     28 C18        -4.0581    4.5799   -8.5141 C.ar      1 <0>        -0.1094
     29 C19        -3.4253    4.4576   -9.7428 C.ar      1 <0>        -0.1135
     30 C20        -0.2236   -1.6124   -3.5841 C.3       1 <0>        -0.0670
     31 C21        -1.5854   -0.9395   -3.4016 C.3       1 <0>        -0.1468
     32 C22        -0.2451   -2.4724   -4.8494 C.3       1 <0>        -0.1568
     33 C23         0.0751   -2.4965   -2.3716 C.3       1 <0>        -0.1314
     34 N4          2.1560    0.3737    0.8799 N.4       1 <0>        -0.4939
     35 C24         1.9995    1.2120    2.0760 C.3       1 <0>        -0.0502
     36 H5          3.0110    2.1838   -0.9151 H         1 <0>         0.0905
     37 H6          1.4000    2.7401   -1.4283 H         1 <0>         0.1108
     38 H7          1.9298    2.9788    0.2541 H         1 <0>         0.0998
     39 H8          0.3026    1.1852   -2.6116 H         1 <0>         0.4172
     40 H9          3.3473   -0.7383   -5.8121 H         1 <0>         0.0772
     41 H10         2.0537   -1.9682   -5.6745 H         1 <0>         0.0864
     42 H11         3.4515   -1.7696   -7.9816 H         1 <0>         0.0958
     43 H12         1.6712   -1.9926   -8.0551 H         1 <0>         0.0826
     44 H13         3.2806    0.6124   -8.2906 H         1 <0>         0.0935
     45 H14         1.9204    0.0473   -9.3151 H         1 <0>         0.0920
     46 H15         0.3354    1.7710   -9.5471 H         1 <0>         0.3997
     47 H16        -0.6990    1.1563  -11.5718 H         1 <0>         0.0859
     48 H17        -2.4707    0.8782  -11.6562 H         1 <0>         0.0907
     49 H18        -0.9516    3.4799  -11.2993 H         1 <0>         0.0812
     50 H19        -2.4882    3.1802  -12.1661 H         1 <0>         0.0821
     51 H20        -3.1113    1.6575   -7.1261 H         1 <0>         0.1217
     52 H21        -4.4367    3.6671   -6.6183 H         1 <0>         0.1221
     53 H22        -4.6397    5.4625   -8.2924 H         1 <0>         0.1247
     54 H23        -3.5142    5.2440  -10.4776 H         1 <0>         0.1220
     55 H24        -1.7982   -0.3097   -4.2654 H         1 <0>         0.0773
     56 H25        -2.3583   -1.7025   -3.3091 H         1 <0>         0.0612
     57 H26        -1.5701   -0.3268   -2.5002 H         1 <0>         0.0472
     58 H27         0.7344   -2.9273   -4.9962 H         1 <0>         0.0581
     59 H28        -0.9969   -3.2547   -4.7442 H         1 <0>         0.0686
     60 H29        -0.4884   -1.8480   -5.7090 H         1 <0>         0.0773
     61 H30         0.0904   -1.8838   -1.4702 H         1 <0>         0.0458
     62 H31        -0.6978   -3.2595   -2.2791 H         1 <0>         0.0608
     63 H32         1.0453   -2.9759   -2.5016 H         1 <0>         0.0640
     64 H33         1.8192   -0.5572    1.0752 H         1 <0>         0.4377
     65 H34         2.3633    2.2176    1.8649 H         1 <0>         0.1273
     66 H35         0.9462    1.2573    2.3526 H         1 <0>         0.1266
     67 H36         2.5729    0.7832    2.8978 H         1 <0>         0.1336
     68 H37         3.1310    0.3317    0.6237 H         1 <0>         0.4347
@<TRIPOS>BOND
     1    1    2 1
     2    1   36 1
     3    1   37 1
     4    1   38 1
     5    2    3 1
     6    2    4 1
     7    2   34 1
     8    4    5 2
     9    4    6 am
    10    6    7 1
    11    6   39 1
    12    7    8 1
    13    7    9 1
    14    7   30 1
    15    9   10 2
    16    9   11 am
    17   11   15 1
    18   11   12 1
    19   12   13 1
    20   12   40 1
    21   12   41 1
    22   13   14 1
    23   13   42 1
    24   13   43 1
    25   14   15 1
    26   14   44 1
    27   14   45 1
    28   15   16 1
    29   15   17 1
    30   17   18 2
    31   17   19 am
    32   19   20 1
    33   19   46 1
    34   20   21 1
    35   20   25 1
    36   20   22 1
    37   22   23 1
    38   22   47 1
    39   22   48 1
    40   23   24 1
    41   23   49 1
    42   23   50 1
    43   24   29 ar
    44   24   25 ar
    45   25   26 ar
    46   26   27 ar
    47   26   51 1
    48   27   28 ar
    49   27   52 1
    50   28   29 ar
    51   28   53 1
    52   29   54 1
    53   30   31 1
    54   30   32 1
    55   30   33 1
    56   31   55 1
    57   31   56 1
    58   31   57 1
    59   32   58 1
    60   32   59 1
    61   32   60 1
    62   33   61 1
    63   33   62 1
    64   33   63 1
    65   34   35 1
    66   34   64 1
    67   34   68 1
    68   35   65 1
    69   35   66 1
    70   35   67 1
@<TRIPOS>MOLECULE
CHEMBL472254
   68    71     0     0     0
SMALL
USER_CHARGES

@<TRIPOS>ATOM
      1 C1         -0.0187    1.5258    0.0104 C.3       1 <0>        -0.1748
      2 C2          0.0021   -0.0041    0.0020 C.3       1 <0>        -0.1457
      3 C3          0.7182   -0.4975   -1.2568 C.3       1 <0>         0.0100
      4 H1          1.7103   -0.0491   -1.3098 H         1 <0>         0.1666
      5 C4          0.8473   -1.9981   -1.2057 C.2       1 <0>         0.5136
      6 O1          0.0734   -2.6948   -1.8275 O.2       1 <0>        -0.4972
      7 N1          1.8227   -2.5659   -0.4690 N.am      1 <0>        -0.7205
      8 C5          1.9481   -4.0246   -0.4194 C.3       1 <0>         0.1282
      9 H2          0.9546   -4.4715   -0.4562 H         1 <0>         0.1429
     10 C6          2.7589   -4.5010   -1.6241 C.3       1 <0>        -0.1498
     11 C7          4.2166   -4.0252   -1.5161 C.3       1 <0>        -0.1372
     12 C8          4.7582   -4.5142   -0.1811 C.3       1 <0>         0.0279
     13 H3          4.6514   -5.5966   -0.1089 H         1 <0>         0.1511
     14 C9          6.2096   -4.1103    0.0954 C.3       1 <0>        -0.1387
     15 C10         6.2489   -3.8686    1.6263 C.3       1 <0>        -0.1373
     16 C11         4.7881   -4.0891    2.1029 C.3       1 <0>         0.0045
     17 H4          4.6462   -5.1145    2.4440 H         1 <0>         0.1696
     18 N2          3.9722   -3.8509    0.8935 N.4       1 <0>        -0.3820
     19 C12         2.6357   -4.4285    0.8936 C.3       1 <0>        -0.0099
     20 C13         4.4335   -3.1139    3.1957 C.2       1 <0>         0.5165
     21 O2          3.5332   -2.3184    3.0299 O.2       1 <0>        -0.5313
     22 N3          5.1167   -3.1258    4.3574 N.am      1 <0>        -0.6884
     23 C14         4.7720   -2.1779    5.4198 C.3       1 <0>         0.2384
     24 C15         3.6424   -2.7377    6.2454 C.ar      1 <0>        -0.1046
     25 C16         3.6224   -4.0816    6.5683 C.ar      1 <0>        -0.1087
     26 C17         2.5862   -4.5952    7.3257 C.ar      1 <0>        -0.1166
     27 C18         1.5703   -3.7646    7.7605 C.ar      1 <0>        -0.1082
     28 C19         1.5908   -2.4205    7.4383 C.ar      1 <0>        -0.1133
     29 C20         2.6292   -1.9062    6.6846 C.ar      1 <0>        -0.1000
     30 C21         5.9737   -1.9515    6.3005 C.ar      1 <0>        -0.1074
     31 C22         6.7958   -3.0116    6.6339 C.ar      1 <0>        -0.1148
     32 C23         7.8981   -2.8040    7.4418 C.ar      1 <0>        -0.1102
     33 C24         8.1786   -1.5361    7.9158 C.ar      1 <0>        -0.1042
     34 C25         7.3570   -0.4758    7.5816 C.ar      1 <0>        -0.1085
     35 C26         6.2571   -0.6827    6.7703 C.ar      1 <0>        -0.1011
     36 N4         -0.0570   -0.1128   -2.4438 N.4       1 <0>        -0.6231
     37 H5          1.0039    1.9031    0.0027 H         1 <0>         0.0770
     38 H6         -0.5459    1.8868   -0.8726 H         1 <0>         0.0596
     39 H7         -0.5289    1.8773    0.9072 H         1 <0>         0.0939
     40 H8          0.5293   -0.3651    0.8851 H         1 <0>         0.1165
     41 H9         -1.0205   -0.3814    0.0098 H         1 <0>         0.1017
     42 H10         2.4416   -2.0086    0.0283 H         1 <0>         0.4041
     43 H11         2.7381   -5.5901   -1.6635 H         1 <0>         0.1066
     44 H12         2.3165   -4.1004   -2.5362 H         1 <0>         0.1016
     45 H13         4.8050   -4.4465   -2.3312 H         1 <0>         0.1262
     46 H14         4.2547   -2.9366   -1.5549 H         1 <0>         0.0854
     47 H15         6.8896   -4.9160   -0.1816 H         1 <0>         0.1262
     48 H16         6.4605   -3.1959   -0.4421 H         1 <0>         0.1053
     49 H17         6.9163   -4.5845    2.1061 H         1 <0>         0.1283
     50 H18         6.5679   -2.8487    1.8410 H         1 <0>         0.1085
     51 H19         2.0684   -4.0435    1.7410 H         1 <0>         0.1450
     52 H20         2.7028   -5.5146    0.9563 H         1 <0>         0.1549
     53 H21         5.8368   -3.7621    4.4900 H         1 <0>         0.4114
     54 H22         4.4632   -1.2313    4.9760 H         1 <0>         0.1106
     55 H23         4.4161   -4.7305    6.2286 H         1 <0>         0.1140
     56 H24         2.5703   -5.6453    7.5774 H         1 <0>         0.1263
     57 H25         0.7604   -4.1660    8.3516 H         1 <0>         0.1281
     58 H26         0.7969   -1.7717    7.7778 H         1 <0>         0.1282
     59 H27         2.6471   -0.8553    6.4360 H         1 <0>         0.1226
     60 H28         6.5766   -4.0022    6.2635 H         1 <0>         0.1155
     61 H29         8.5400   -3.6324    7.7028 H         1 <0>         0.1296
     62 H30         9.0394   -1.3740    8.5476 H         1 <0>         0.1309
     63 H31         7.5760    0.5147    7.9523 H         1 <0>         0.1313
     64 H32         5.6174    0.1464    6.5062 H         1 <0>         0.1249
     65 H33        -0.1435    0.8919   -2.4780 H         1 <0>         0.4465
     66 H34         0.4152   -0.4382   -3.2739 H         1 <0>         0.4418
     67 H35         3.9218   -2.8585    0.7184 H         1 <0>         0.4164
     68 H36        -0.9754   -0.5279   -2.3947 H         1 <0>         0.4453
@<TRIPOS>BOND
     1    1    2 1
     2    1   37 1
     3    1   38 1
     4    1   39 1
     5    2    3 1
     6    2   40 1
     7    2   41 1
     8    3    4 1
     9    3    5 1
    10    3   36 1
    11    5    6 2
    12    5    7 am
    13    7    8 1
    14    7   42 1
    15    8    9 1
    16    8   19 1
    17    8   10 1
    18   10   11 1
    19   10   43 1
    20   10   44 1
    21   11   12 1
    22   11   45 1
    23   11   46 1
    24   12   13 1
    25   12   18 1
    26   12   14 1
    27   14   15 1
    28   14   47 1
    29   14   48 1
    30   15   16 1
    31   15   49 1
    32   15   50 1
    33   16   17 1
    34   16   18 1
    35   16   20 1
    36   18   19 1
    37   18   67 1
    38   19   51 1
    39   19   52 1
    40   20   21 2
    41   20   22 am
    42   22   23 1
    43   22   53 1
    44   23   24 1
    45   23   30 1
    46   23   54 1
    47   24   29 ar
    48   24   25 ar
    49   25   26 ar
    50   25   55 1
    51   26   27 ar
    52   26   56 1
    53   27   28 ar
    54   27   57 1
    55   28   29 ar
    56   28   58 1
    57   29   59 1
    58   30   35 ar
    59   30   31 ar
    60   31   32 ar
    61   31   60 1
    62   32   33 ar
    63   32   61 1
    64   33   34 ar
    65   33   62 1
    66   34   35 ar
    67   34   63 1
    68   35   64 1
    69   36   65 1
    70   36   66 1
    71   36   68 1
@<TRIPOS>MOLECULE
CHEMBL485721
   71    74     0     0     0
SMALL
USER_CHARGES

@<TRIPOS>ATOM
      1 C1         -0.0187    1.5258    0.0104 C.3       1 <0>        -0.1766
      2 C2          0.0021   -0.0041    0.0020 C.3       1 <0>         0.0068
      3 H1         -1.0205   -0.3814    0.0098 H         1 <0>         0.1598
      4 C3          0.7074   -0.4901   -1.2379 C.2       1 <0>         0.5183
      5 O1          1.7039   -1.1744   -1.1398 O.2       1 <0>        -0.4936
      6 N1          0.2309   -0.1642   -2.4557 N.am      1 <0>        -0.6962
      7 C4          0.9166   -0.6366   -3.6610 C.3       1 <0>         0.1465
      8 H2          1.3147   -1.6414   -3.4438 H         1 <0>         0.1232
      9 C5         -0.0798   -0.7617   -4.8077 C.3       1 <0>        -0.1284
     10 C6          0.3497    0.0463   -6.0243 C.3       1 <0>        -0.1340
     11 C7         -0.5079    1.3049   -6.0621 C.3       1 <0>        -0.1264
     12 C8         -0.2980    2.1357   -4.8025 C.3       1 <0>        -0.1254
     13 C9          1.1515    2.5729   -4.6914 C.3       1 <0>         0.1494
     14 H3          1.5300    2.8389   -5.6876 H         1 <0>         0.0811
     15 C10         1.2318    3.8222   -3.7797 C.3       1 <0>        -0.1298
     16 C11         2.7443    3.8662   -3.4601 C.3       1 <0>        -0.1284
     17 C12         3.1728    2.3895   -3.5038 C.3       1 <0>         0.1106
     18 H4          4.0574    2.2793   -4.1308 H         1 <0>         0.1009
     19 N2          2.0517    1.5970   -4.0877 N.am      1 <0>        -0.6194
     20 C13         2.0603    0.2633   -3.9854 C.2       1 <0>         0.5671
     21 O2          3.1375   -0.2889   -4.2035 O.2       1 <0>        -0.5178
     22 C14         3.4731    1.9108   -2.1055 C.2       1 <0>         0.5180
     23 O3          2.8268    1.0052   -1.6226 O.2       1 <0>        -0.5322
     24 N3          4.4598    2.4893   -1.3925 N.am      1 <0>        -0.7139
     25 C15         4.7515    2.0242   -0.0342 C.3       1 <0>         0.1602
     26 H5          4.5948    0.9472    0.0248 H         1 <0>         0.0907
     27 C16         3.8271    2.7333    0.9613 C.3       1 <0>        -0.1278
     28 C17         4.0532    4.2440    0.9032 C.3       1 <0>        -0.1179
     29 C18         5.5154    4.5696    1.2264 C.3       1 <0>        -0.1129
     30 C19         6.4110    3.8635    0.2115 C.3       1 <0>        -0.0532
     31 C20         6.2006    2.3508    0.3184 C.3       1 <0>        -0.0621
     32 C21         7.1640    1.6336   -0.5840 C.2       1 <0>        -0.1520
     33 C22         8.3962    2.1156   -0.7321 C.2       1 <0>        -0.1211
     34 C23         8.7941    3.3502   -0.0383 C.2       1 <0>        -0.1300
     35 C24         7.8606    4.1910    0.4305 C.2       1 <0>        -0.1469
     36 N4          0.7126   -0.4907    1.1921 N.4       1 <0>        -0.4939
     37 C25        -0.0398   -0.1189    2.3978 C.3       1 <0>        -0.0497
     38 H6          1.0039    1.9031    0.0027 H         1 <0>         0.0930
     39 H7         -0.5459    1.8868   -0.8726 H         1 <0>         0.1041
     40 H8         -0.5289    1.8773    0.9072 H         1 <0>         0.0922
     41 H9         -0.5660    0.3831   -2.5342 H         1 <0>         0.4019
     42 H10        -0.1811   -1.8121   -5.0893 H         1 <0>         0.0881
     43 H11        -1.0588   -0.4011   -4.4723 H         1 <0>         0.0830
     44 H12         1.3982    0.3190   -5.9711 H         1 <0>         0.0731
     45 H13         0.1774   -0.5377   -6.9312 H         1 <0>         0.0802
     46 H14        -0.2652    1.8920   -6.9422 H         1 <0>         0.0740
     47 H15        -1.5574    1.0046   -6.1126 H         1 <0>         0.0707
     48 H16        -0.9367    3.0256   -4.8564 H         1 <0>         0.0863
     49 H17        -0.5909    1.5603   -3.9291 H         1 <0>         0.0615
     50 H18         0.9243    4.7148   -4.3227 H         1 <0>         0.0933
     51 H19         0.6449    3.6819   -2.8762 H         1 <0>         0.0746
     52 H20         3.2739    4.4342   -4.2246 H         1 <0>         0.0918
     53 H21         2.9165    4.2921   -2.4743 H         1 <0>         0.0842
     54 H22         4.9767    3.2135   -1.7786 H         1 <0>         0.4025
     55 H23         2.7893    2.5132    0.7109 H         1 <0>         0.0575
     56 H24         4.0378    2.3747    1.9688 H         1 <0>         0.0728
     57 H25         3.8143    4.6072   -0.0964 H         1 <0>         0.0622
     58 H26         3.4046    4.7348    1.6288 H         1 <0>         0.0661
     59 H27         5.6723    5.6465    1.1653 H         1 <0>         0.0726
     60 H28         5.7545    4.2196    2.2306 H         1 <0>         0.0691
     61 H29         6.1250    4.1789   -0.7919 H         1 <0>         0.0741
     62 H30         6.3935    2.0396    1.3451 H         1 <0>         0.0934
     63 H31         6.8610    0.7379   -1.1057 H         1 <0>         0.1177
     64 H32         9.1047    1.5995   -1.3631 H         1 <0>         0.1196
     65 H33         9.8409    3.5805    0.0947 H         1 <0>         0.1203
     66 H34         8.1444    5.0897    0.9579 H         1 <0>         0.1229
     67 H35         0.7982   -1.4950    1.1455 H         1 <0>         0.4362
     68 H36         0.4873   -0.4799    3.2808 H         1 <0>         0.1317
     69 H37        -0.1324    0.9660    2.4481 H         1 <0>         0.1253
     70 H38        -1.0328   -0.5668    2.3589 H         1 <0>         0.1260
     71 H39         1.6317   -0.0761    1.2281 H         1 <0>         0.4350
@<TRIPOS>BOND
     1    1    2 1
     2    1   38 1
     3    1   39 1
     4    1   40 1
     5    2    3 1
     6    2    4 1
     7    2   36 1
     8    4    5 2
     9    4    6 am
    10    6    7 1
    11    6   41 1
    12    7    8 1
    13    7   20 1
    14    7    9 1
    15    9   10 1
    16    9   42 1
    17    9   43 1
    18   10   11 1
    19   10   44 1
    20   10   45 1
    21   11   12 1
    22   11   46 1
    23   11   47 1
    24   12   13 1
    25   12   48 1
    26   12   49 1
    27   13   14 1
    28   13   19 1
    29   13   15 1
    30   15   16 1
    31   15   50 1
    32   15   51 1
    33   16   17 1
    34   16   52 1
    35   16   53 1
    36   17   18 1
    37   17   19 1
    38   17   22 1
    39   19   20 am
    40   20   21 2
    41   22   23 2
    42   22   24 am
    43   24   25 1
    44   24   54 1
    45   25   26 1
    46   25   31 1
    47   25   27 1
    48   27   28 1
    49   27   55 1
    50   27   56 1
    51   28   29 1
    52   28   57 1
    53   28   58 1
    54   29   30 1
    55   29   59 1
    56   29   60 1
    57   30   35 1
    58   30   31 1
    59   30   61 1
    60   31   32 1
    61   31   62 1
    62   32   33 2
    63   32   63 1
    64   33   34 1
    65   33   64 1
    66   34   35 2
    67   34   65 1
    68   35   66 1
    69   36   37 1
    70   36   67 1
    71   36   71 1
    72   37   68 1
    73   37   69 1
    74   37   70 1
@<TRIPOS>MOLECULE
CHEMBL485721__1
   71    74     0     0     0
SMALL
USER_CHARGES

@<TRIPOS>ATOM
      1 C1         -0.0187    1.5258    0.0104 C.3       1 <0>        -0.1769
      2 C2          0.0021   -0.0041    0.0020 C.3       1 <0>         0.0068
      3 H1         -1.0205   -0.3814    0.0098 H         1 <0>         0.1600
      4 C3          0.7074   -0.4901   -1.2379 C.2       1 <0>         0.5182
      5 O1          1.7039   -1.1744   -1.1398 O.2       1 <0>        -0.4936
      6 N1          0.2309   -0.1642   -2.4557 N.am      1 <0>        -0.6962
      7 C4          0.9166   -0.6366   -3.6610 C.3       1 <0>         0.1464
      8 H2          1.3147   -1.6414   -3.4438 H         1 <0>         0.1233
      9 C5         -0.0798   -0.7617   -4.8077 C.3       1 <0>        -0.1284
     10 C6          0.3497    0.0463   -6.0243 C.3       1 <0>        -0.1339
     11 C7         -0.5079    1.3049   -6.0621 C.3       1 <0>        -0.1264
     12 C8         -0.2980    2.1357   -4.8025 C.3       1 <0>        -0.1255
     13 C9          1.1515    2.5729   -4.6914 C.3       1 <0>         0.1494
     14 H3          1.5300    2.8389   -5.6876 H         1 <0>         0.0813
     15 C10         1.2318    3.8222   -3.7797 C.3       1 <0>        -0.1300
     16 C11         2.7443    3.8662   -3.4601 C.3       1 <0>        -0.1283
     17 C12         3.1728    2.3895   -3.5038 C.3       1 <0>         0.1105
     18 H4          4.0574    2.2793   -4.1308 H         1 <0>         0.1016
     19 N2          2.0517    1.5970   -4.0877 N.am      1 <0>        -0.6195
     20 C13         2.0603    0.2633   -3.9854 C.2       1 <0>         0.5668
     21 O2          3.1375   -0.2889   -4.2035 O.2       1 <0>        -0.5177
     22 C14         3.4731    1.9108   -2.1055 C.2       1 <0>         0.5182
     23 O3          2.8268    1.0052   -1.6226 O.2       1 <0>        -0.5310
     24 N3          4.4598    2.4893   -1.3925 N.am      1 <0>        -0.7182
     25 C15         4.7515    2.0242   -0.0342 C.3       1 <0>         0.1619
     26 H5          4.5938    0.9471    0.0210 H         1 <0>         0.0890
     27 C16         3.8178    2.7254    0.9540 C.3       1 <0>        -0.1261
     28 C17         4.0498    4.2365    0.8763 C.3       1 <0>        -0.1159
     29 C18         5.4981    4.5440    1.2572 C.3       1 <0>        -0.1132
     30 C19         6.4511    3.8471    0.2822 C.3       1 <0>        -0.0520
     31 C20         6.2026    2.3412    0.3082 C.3       1 <0>        -0.0623
     32 C21         6.5581    1.7951    1.6649 C.2       1 <0>        -0.1475
     33 C22         7.6048    2.2979    2.3166 C.2       1 <0>        -0.1185
     34 C23         8.4009    3.3686    1.6924 C.2       1 <0>        -0.1300
     35 C24         7.8708    4.1114    0.7290 C.2       1 <0>        -0.1466
     36 N4          0.7126   -0.4907    1.1921 N.4       1 <0>        -0.4940
     37 C25        -0.0398   -0.1189    2.3978 C.3       1 <0>        -0.0499
     38 H6          1.0039    1.9031    0.0027 H         1 <0>         0.0931
     39 H7         -0.5459    1.8868   -0.8726 H         1 <0>         0.1042
     40 H8         -0.5289    1.8773    0.9072 H         1 <0>         0.0924
     41 H9         -0.5660    0.3831   -2.5342 H         1 <0>         0.4020
     42 H10        -0.1811   -1.8121   -5.0893 H         1 <0>         0.0882
     43 H11        -1.0588   -0.4011   -4.4723 H         1 <0>         0.0831
     44 H12         1.3982    0.3190   -5.9711 H         1 <0>         0.0731
     45 H13         0.1774   -0.5377   -6.9312 H         1 <0>         0.0803
     46 H14        -0.2652    1.8920   -6.9422 H         1 <0>         0.0740
     47 H15        -1.5574    1.0046   -6.1126 H         1 <0>         0.0707
     48 H16        -0.9367    3.0256   -4.8564 H         1 <0>         0.0863
     49 H17        -0.5909    1.5603   -3.9291 H         1 <0>         0.0615
     50 H18         0.9243    4.7148   -4.3227 H         1 <0>         0.0934
     51 H19         0.6449    3.6819   -2.8762 H         1 <0>         0.0746
     52 H20         3.2739    4.4342   -4.2246 H         1 <0>         0.0922
     53 H21         2.9165    4.2921   -2.4743 H         1 <0>         0.0846
     54 H22         4.9767    3.2135   -1.7786 H         1 <0>         0.4026
     55 H23         2.7821    2.5020    0.6979 H         1 <0>         0.0556
     56 H24         4.0280    2.3759    1.9648 H         1 <0>         0.0742
     57 H25         3.8593    4.5823   -0.1397 H         1 <0>         0.0622
     58 H26         3.3762    4.7442    1.5667 H         1 <0>         0.0647
     59 H27         5.6624    5.6208    1.2170 H         1 <0>         0.0678
     60 H28         5.6901    4.1870    2.2690 H         1 <0>         0.0693
     61 H29         6.3023    4.2415   -0.7230 H         1 <0>         0.0797
     62 H30         6.8500    1.8675   -0.4298 H         1 <0>         0.0857
     63 H31         5.9699    1.0037    2.1056 H         1 <0>         0.1162
     64 H32         7.8678    1.9239    3.2950 H         1 <0>         0.1213
     65 H33         9.4162    3.5460    2.0147 H         1 <0>         0.1202
     66 H34         8.4473    4.9017    0.2712 H         1 <0>         0.1207
     67 H35         0.7982   -1.4950    1.1455 H         1 <0>         0.4362
     68 H36         0.4873   -0.4799    3.2808 H         1 <0>         0.1317
     69 H37        -0.1324    0.9660    2.4481 H         1 <0>         0.1254
     70 H38        -1.0328   -0.5668    2.3589 H         1 <0>         0.1262
     71 H39         1.6317   -0.0761    1.2281 H         1 <0>         0.4348
@<TRIPOS>BOND
     1    1    2 1
     2    1   38 1
     3    1   39 1
     4    1   40 1
     5    2    3 1
     6    2    4 1
     7    2   36 1
     8    4    5 2
     9    4    6 am
    10    6    7 1
    11    6   41 1
    12    7    8 1
    13    7   20 1
    14    7    9 1
    15    9   10 1
    16    9   42 1
    17    9   43 1
    18   10   11 1
    19   10   44 1
    20   10   45 1
    21   11   12 1
    22   11   46 1
    23   11   47 1
    24   12   13 1
    25   12   48 1
    26   12   49 1
    27   13   14 1
    28   13   19 1
    29   13   15 1
    30   15   16 1
    31   15   50 1
    32   15   51 1
    33   16   17 1
    34   16   52 1
    35   16   53 1
    36   17   18 1
    37   17   19 1
    38   17   22 1
    39   19   20 am
    40   20   21 2
    41   22   23 2
    42   22   24 am
    43   24   25 1
    44   24   54 1
    45   25   26 1
    46   25   31 1
    47   25   27 1
    48   27   28 1
    49   27   55 1
    50   27   56 1
    51   28   29 1
    52   28   57 1
    53   28   58 1
    54   29   30 1
    55   29   59 1
    56   29   60 1
    57   30   35 1
    58   30   31 1
    59   30   61 1
    60   31   32 1
    61   31   62 1
    62   32   33 2
    63   32   63 1
    64   33   34 1
    65   33   64 1
    66   34   35 2
    67   34   65 1
    68   35   66 1
    69   36   37 1
    70   36   67 1
    71   36   71 1
    72   37   68 1
    73   37   69 1
    74   37   70 1
@<TRIPOS>MOLECULE
CHEMBL485721__2
   71    74     0     0     0
SMALL
USER_CHARGES

@<TRIPOS>ATOM
      1 C1         -0.0187    1.5258    0.0104 C.3       1 <0>        -0.1770
      2 C2          0.0021   -0.0041    0.0020 C.3       1 <0>         0.0068
      3 H1         -1.0205   -0.3814    0.0098 H         1 <0>         0.1602
      4 C3          0.7074   -0.4901   -1.2379 C.2       1 <0>         0.5182
      5 O1          1.7039   -1.1744   -1.1398 O.2       1 <0>        -0.4935
      6 N1          0.2309   -0.1642   -2.4557 N.am      1 <0>        -0.6963
      7 C4          0.9166   -0.6366   -3.6610 C.3       1 <0>         0.1464
      8 H2          1.3147   -1.6414   -3.4438 H         1 <0>         0.1234
      9 C5         -0.0798   -0.7617   -4.8077 C.3       1 <0>        -0.1284
     10 C6          0.3497    0.0463   -6.0243 C.3       1 <0>        -0.1340
     11 C7         -0.5079    1.3049   -6.0621 C.3       1 <0>        -0.1264
     12 C8         -0.2980    2.1357   -4.8025 C.3       1 <0>        -0.1255
     13 C9          1.1515    2.5729   -4.6914 C.3       1 <0>         0.1493
     14 H3          1.5300    2.8389   -5.6876 H         1 <0>         0.0814
     15 C10         1.2318    3.8222   -3.7797 C.3       1 <0>        -0.1301
     16 C11         2.7443    3.8662   -3.4601 C.3       1 <0>        -0.1282
     17 C12         3.1728    2.3895   -3.5038 C.3       1 <0>         0.1104
     18 H4          4.0574    2.2793   -4.1308 H         1 <0>         0.1019
     19 N2          2.0517    1.5970   -4.0877 N.am      1 <0>        -0.6196
     20 C13         2.0603    0.2633   -3.9854 C.2       1 <0>         0.5667
     21 O2          3.1375   -0.2889   -4.2035 O.2       1 <0>        -0.5176
     22 C14         3.4731    1.9108   -2.1055 C.2       1 <0>         0.5179
     23 O3          2.8268    1.0052   -1.6226 O.2       1 <0>        -0.5304
     24 N3          4.4598    2.4893   -1.3925 N.am      1 <0>        -0.7211
     25 C15         4.7515    2.0242   -0.0342 C.3       1 <0>         0.1616
     26 H5          4.5938    0.9471    0.0210 H         1 <0>         0.0892
     27 C16         3.8178    2.7254    0.9540 C.3       1 <0>        -0.1265
     28 C17         4.1312    2.2383    2.3710 C.3       1 <0>        -0.1156
     29 C18         5.5776    2.5925    2.7170 C.3       1 <0>        -0.1147
     30 C19         6.5303    1.9038    1.7358 C.3       1 <0>        -0.0473
     31 C20         6.2026    2.3412    0.3082 C.3       1 <0>        -0.0622
     32 C21         6.4732    3.8139    0.1558 C.2       1 <0>        -0.1572
     33 C22         7.5184    4.3530    0.7803 C.2       1 <0>        -0.1156
     34 C23         8.3955    3.4964    1.5969 C.2       1 <0>        -0.1302
     35 C24         7.9433    2.3317    2.0602 C.2       1 <0>        -0.1466
     36 N4          0.7126   -0.4907    1.1921 N.4       1 <0>        -0.4942
     37 C25        -0.0398   -0.1189    2.3978 C.3       1 <0>        -0.0502
     38 H6          1.0039    1.9031    0.0027 H         1 <0>         0.0929
     39 H7         -0.5459    1.8868   -0.8726 H         1 <0>         0.1043
     40 H8         -0.5289    1.8773    0.9072 H         1 <0>         0.0925
     41 H9         -0.5660    0.3831   -2.5342 H         1 <0>         0.4020
     42 H10        -0.1811   -1.8121   -5.0893 H         1 <0>         0.0882
     43 H11        -1.0588   -0.4011   -4.4723 H         1 <0>         0.0831
     44 H12         1.3982    0.3190   -5.9711 H         1 <0>         0.0731
     45 H13         0.1774   -0.5377   -6.9312 H         1 <0>         0.0803
     46 H14        -0.2652    1.8920   -6.9422 H         1 <0>         0.0741
     47 H15        -1.5574    1.0046   -6.1126 H         1 <0>         0.0707
     48 H16        -0.9367    3.0256   -4.8564 H         1 <0>         0.0864
     49 H17        -0.5909    1.5603   -3.9291 H         1 <0>         0.0615
     50 H18         0.9243    4.7148   -4.3227 H         1 <0>         0.0935
     51 H19         0.6449    3.6819   -2.8762 H         1 <0>         0.0746
     52 H20         3.2739    4.4342   -4.2246 H         1 <0>         0.0923
     53 H21         2.9165    4.2921   -2.4743 H         1 <0>         0.0843
     54 H22         4.9767    3.2135   -1.7786 H         1 <0>         0.4033
     55 H23         3.9699    3.8032    0.8971 H         1 <0>         0.0725
     56 H24         2.7826    2.4888    0.7079 H         1 <0>         0.0559
     57 H25         3.4585    2.7221    3.0793 H         1 <0>         0.0680
     58 H26         3.9988    1.1576    2.4221 H         1 <0>         0.0579
     59 H27         5.7111    3.6725    2.6539 H         1 <0>         0.0711
     60 H28         5.7993    2.2599    3.7310 H         1 <0>         0.0687
     61 H29         6.4416    0.8220    1.8349 H         1 <0>         0.0848
     62 H30         6.8527    1.8024   -0.3811 H         1 <0>         0.0860
     63 H31         5.8265    4.4271   -0.4541 H         1 <0>         0.1149
     64 H32         7.7213    5.4098    0.6892 H         1 <0>         0.1213
     65 H33         9.4054    3.8096    1.8168 H         1 <0>         0.1206
     66 H34         8.5774    1.7014    2.6660 H         1 <0>         0.1215
     67 H35         0.7982   -1.4950    1.1455 H         1 <0>         0.4362
     68 H36         0.4873   -0.4799    3.2808 H         1 <0>         0.1319
     69 H37        -0.1324    0.9660    2.4481 H         1 <0>         0.1256
     70 H38        -1.0328   -0.5668    2.3589 H         1 <0>         0.1264
     71 H39         1.6317   -0.0761    1.2281 H         1 <0>         0.4346
@<TRIPOS>BOND
     1    1    2 1
     2    1   38 1
     3    1   39 1
     4    1   40 1
     5    2    3 1
     6    2    4 1
     7    2   36 1
     8    4    5 2
     9    4    6 am
    10    6    7 1
    11    6   41 1
    12    7    8 1
    13    7   20 1
    14    7    9 1
    15    9   10 1
    16    9   42 1
    17    9   43 1
    18   10   11 1
    19   10   44 1
    20   10   45 1
    21   11   12 1
    22   11   46 1
    23   11   47 1
    24   12   13 1
    25   12   48 1
    26   12   49 1
    27   13   14 1
    28   13   19 1
    29   13   15 1
    30   15   16 1
    31   15   50 1
    32   15   51 1
    33   16   17 1
    34   16   52 1
    35   16   53 1
    36   17   18 1
    37   17   19 1
    38   17   22 1
    39   19   20 am
    40   20   21 2
    41   22   23 2
    42   22   24 am
    43   24   25 1
    44   24   54 1
    45   25   26 1
    46   25   31 1
    47   25   27 1
    48   27   28 1
    49   27   55 1
    50   27   56 1
    51   28   29 1
    52   28   57 1
    53   28   58 1
    54   29   30 1
    55   29   59 1
    56   29   60 1
    57   30   35 1
    58   30   31 1
    59   30   61 1
    60   31   32 1
    61   31   62 1
    62   32   33 2
    63   32   63 1
    64   33   34 1
    65   33   64 1
    66   34   35 2
    67   34   65 1
    68   35   66 1
    69   36   37 1
    70   36   67 1
    71   36   71 1
    72   37   68 1
    73   37   69 1
    74   37   70 1
@<TRIPOS>MOLECULE
CHEMBL485721__3
   71    74     0     0     0
SMALL
USER_CHARGES

@<TRIPOS>ATOM
      1 C1         -0.0187    1.5258    0.0104 C.3       1 <0>        -0.1768
      2 C2          0.0021   -0.0041    0.0020 C.3       1 <0>         0.0067
      3 H1         -1.0205   -0.3814    0.0098 H         1 <0>         0.1602
      4 C3          0.7074   -0.4901   -1.2379 C.2       1 <0>         0.5180
      5 O1          1.7039   -1.1744   -1.1398 O.2       1 <0>        -0.4933
      6 N1          0.2309   -0.1642   -2.4557 N.am      1 <0>        -0.6963
      7 C4          0.9166   -0.6366   -3.6610 C.3       1 <0>         0.1463
      8 H2          1.3147   -1.6414   -3.4438 H         1 <0>         0.1233
      9 C5         -0.0798   -0.7617   -4.8077 C.3       1 <0>        -0.1284
     10 C6          0.3497    0.0463   -6.0243 C.3       1 <0>        -0.1339
     11 C7         -0.5079    1.3049   -6.0621 C.3       1 <0>        -0.1264
     12 C8         -0.2980    2.1357   -4.8025 C.3       1 <0>        -0.1255
     13 C9          1.1515    2.5729   -4.6914 C.3       1 <0>         0.1493
     14 H3          1.5300    2.8389   -5.6876 H         1 <0>         0.0813
     15 C10         1.2318    3.8222   -3.7797 C.3       1 <0>        -0.1302
     16 C11         2.7443    3.8662   -3.4601 C.3       1 <0>        -0.1281
     17 C12         3.1728    2.3895   -3.5038 C.3       1 <0>         0.1106
     18 H4          4.0574    2.2793   -4.1308 H         1 <0>         0.1018
     19 N2          2.0517    1.5970   -4.0877 N.am      1 <0>        -0.6197
     20 C13         2.0603    0.2633   -3.9854 C.2       1 <0>         0.5668
     21 O2          3.1375   -0.2889   -4.2035 O.2       1 <0>        -0.5176
     22 C14         3.4731    1.9108   -2.1055 C.2       1 <0>         0.5181
     23 O3          2.8268    1.0052   -1.6226 O.2       1 <0>        -0.5301
     24 N3          4.4598    2.4893   -1.3925 N.am      1 <0>        -0.7195
     25 C15         4.7515    2.0242   -0.0342 C.3       1 <0>         0.1606
     26 H5          4.5948    0.9472    0.0248 H         1 <0>         0.0897
     27 C16         3.8271    2.7333    0.9613 C.3       1 <0>        -0.1286
     28 C17         4.1393    2.2748    2.3858 C.3       1 <0>        -0.1168
     29 C18         5.6026    2.5770    2.7265 C.3       1 <0>        -0.1140
     30 C19         6.4991    1.8469    1.7297 C.3       1 <0>        -0.0495
     31 C20         6.2006    2.3508    0.3184 C.3       1 <0>        -0.0615
     32 C21         7.1599    1.7325   -0.6585 C.2       1 <0>        -0.1547
     33 C22         8.4210    1.5239   -0.2863 C.2       1 <0>        -0.1199
     34 C23         8.8561    1.8729    1.0750 C.2       1 <0>        -0.1299
     35 C24         7.9543    2.0479    2.0439 C.2       1 <0>        -0.1458
     36 N4          0.7126   -0.4907    1.1921 N.4       1 <0>        -0.4943
     37 C25        -0.0398   -0.1189    2.3978 C.3       1 <0>        -0.0503
     38 H6          1.0039    1.9031    0.0027 H         1 <0>         0.0926
     39 H7         -0.5459    1.8868   -0.8726 H         1 <0>         0.1044
     40 H8         -0.5289    1.8773    0.9072 H         1 <0>         0.0926
     41 H9         -0.5660    0.3831   -2.5342 H         1 <0>         0.4020
     42 H10        -0.1811   -1.8121   -5.0893 H         1 <0>         0.0882
     43 H11        -1.0588   -0.4011   -4.4723 H         1 <0>         0.0831
     44 H12         1.3982    0.3190   -5.9711 H         1 <0>         0.0730
     45 H13         0.1774   -0.5377   -6.9312 H         1 <0>         0.0803
     46 H14        -0.2652    1.8920   -6.9422 H         1 <0>         0.0741
     47 H15        -1.5574    1.0046   -6.1126 H         1 <0>         0.0707
     48 H16        -0.9367    3.0256   -4.8564 H         1 <0>         0.0864
     49 H17        -0.5909    1.5603   -3.9291 H         1 <0>         0.0615
     50 H18         0.9243    4.7148   -4.3227 H         1 <0>         0.0935
     51 H19         0.6449    3.6819   -2.8762 H         1 <0>         0.0745
     52 H20         3.2739    4.4342   -4.2246 H         1 <0>         0.0923
     53 H21         2.9165    4.2921   -2.4743 H         1 <0>         0.0847
     54 H22         4.9767    3.2135   -1.7786 H         1 <0>         0.4041
     55 H23         3.9750    3.8107    0.8878 H         1 <0>         0.0709
     56 H24         2.7901    2.4956    0.7241 H         1 <0>         0.0575
     57 H25         3.4892    2.8001    3.0854 H         1 <0>         0.0696
     58 H26         3.9632    1.2022    2.4671 H         1 <0>         0.0575
     59 H27         5.7794    3.6504    2.6591 H         1 <0>         0.0708
     60 H28         5.8216    2.2309    3.7367 H         1 <0>         0.0735
     61 H29         6.2736    0.7811    1.7661 H         1 <0>         0.0790
     62 H30         6.3351    3.4322    0.2957 H         1 <0>         0.0850
     63 H31         6.8304    1.4602   -1.6503 H         1 <0>         0.1179
     64 H32         9.1257    1.0975   -0.9848 H         1 <0>         0.1198
     65 H33         9.9075    1.9927    1.2909 H         1 <0>         0.1206
     66 H34         8.2654    2.3234    3.0408 H         1 <0>         0.1232
     67 H35         0.7982   -1.4950    1.1455 H         1 <0>         0.4362
     68 H36         0.4873   -0.4799    3.2808 H         1 <0>         0.1319
     69 H37        -0.1324    0.9660    2.4481 H         1 <0>         0.1256
     70 H38        -1.0328   -0.5668    2.3589 H         1 <0>         0.1265
     71 H39         1.6317   -0.0761    1.2281 H         1 <0>         0.4345
@<TRIPOS>BOND
     1    1    2 1
     2    1   38 1
     3    1   39 1
     4    1   40 1
     5    2    3 1
     6    2    4 1
     7    2   36 1
     8    4    5 2
     9    4    6 am
    10    6    7 1
    11    6   41 1
    12    7    8 1
    13    7   20 1
    14    7    9 1
    15    9   10 1
    16    9   42 1
    17    9   43 1
    18   10   11 1
    19   10   44 1
    20   10   45 1
    21   11   12 1
    22   11   46 1
    23   11   47 1
    24   12   13 1
    25   12   48 1
    26   12   49 1
    27   13   14 1
    28   13   19 1
    29   13   15 1
    30   15   16 1
    31   15   50 1
    32   15   51 1
    33   16   17 1
    34   16   52 1
    35   16   53 1
    36   17   18 1
    37   17   19 1
    38   17   22 1
    39   19   20 am
    40   20   21 2
    41   22   23 2
    42   22   24 am
    43   24   25 1
    44   24   54 1
    45   25   26 1
    46   25   31 1
    47   25   27 1
    48   27   28 1
    49   27   55 1
    50   27   56 1
    51   28   29 1
    52   28   57 1
    53   28   58 1
    54   29   30 1
    55   29   59 1
    56   29   60 1
    57   30   35 1
    58   30   31 1
    59   30   61 1
    60   31   32 1
    61   31   62 1
    62   32   33 2
    63   32   63 1
    64   33   34 1
    65   33   64 1
    66   34   35 2
    67   34   65 1
    68   35   66 1
    69   36   37 1
    70   36   67 1
    71   36   71 1
    72   37   68 1
    73   37   69 1
    74   37   70 1
@<TRIPOS>MOLECULE
CHEMBL520870
   78    82     0     0     0
SMALL
USER_CHARGES

@<TRIPOS>ATOM
      1 C1         -0.0187    1.5258    0.0104 C.3       1 <0>        -0.1695
      2 C2          0.0021   -0.0041    0.0020 C.3       1 <0>        -0.1419
      3 C3          0.7421   -0.5109    1.2415 C.3       1 <0>         0.0107
      4 H1          0.2852   -0.0874    2.1360 H         1 <0>         0.1580
      5 C4          0.6567   -2.0144    1.2978 C.2       1 <0>         0.5174
      6 O1          1.5928   -2.6893    0.9247 O.2       1 <0>        -0.4902
      7 N1         -0.4599   -2.6091    1.7626 N.am      1 <0>        -0.6964
      8 C5         -0.5428   -4.0706    1.8173 C.3       1 <0>         0.1466
      9 H2          0.4622   -4.4509    2.0633 H         1 <0>         0.1233
     10 C6         -1.4932   -4.4937    2.9314 C.3       1 <0>        -0.1282
     11 C7         -2.6081   -5.3932    2.4162 C.3       1 <0>        -0.1340
     12 C8         -3.8715   -4.5469    2.3245 C.3       1 <0>        -0.1262
     13 C9         -3.6710   -3.3856    1.3590 C.3       1 <0>        -0.1254
     14 C10        -3.3639   -3.9022   -0.0350 C.3       1 <0>         0.1494
     15 H3         -3.9803   -4.7880   -0.2401 H         1 <0>         0.0814
     16 C11        -3.7153   -2.8029   -1.0677 C.3       1 <0>        -0.1297
     17 C12        -2.9802   -3.3234   -2.3249 C.3       1 <0>        -0.1288
     18 C13        -1.7713   -4.0852   -1.7553 C.3       1 <0>         0.1116
     19 H4         -1.7087   -5.0734   -2.2106 H         1 <0>         0.1024
     20 N2         -1.9648   -4.2309   -0.2832 N.am      1 <0>        -0.6191
     21 C14        -0.9379   -4.6112    0.4850 C.2       1 <0>         0.5659
     22 O2         -0.2473   -5.5305    0.0483 O.2       1 <0>        -0.5169
     23 C15        -0.5088   -3.3099   -2.0382 C.2       1 <0>         0.5193
     24 O3          0.1731   -2.9056   -1.1204 O.2       1 <0>        -0.5212
     25 N3         -0.1385   -3.0665   -3.3111 N.am      1 <0>        -0.7177
     26 C16         1.0878   -2.3135   -3.5859 C.3       1 <0>         0.2343
     27 H5          1.8389   -2.5554   -2.8340 H         1 <0>         0.1033
     28 C17         0.7908   -0.8367   -3.5422 C.ar      1 <0>        -0.0811
     29 C18        -0.3882   -0.3526   -4.0774 C.ar      1 <0>        -0.0990
     30 C19        -0.6606    1.0021   -4.0373 C.ar      1 <0>        -0.1108
     31 C20         0.2459    1.8726   -3.4616 C.ar      1 <0>        -0.1160
     32 C21         1.4245    1.3884   -2.9256 C.ar      1 <0>        -0.1211
     33 C22         1.6949    0.0333   -2.9618 C.ar      1 <0>        -0.1200
     34 C23         1.6076   -2.6811   -4.9518 C.ar      1 <0>        -0.0952
     35 C24         0.7101   -2.8559   -6.0036 C.ar      1 <0>        -0.1154
     36 C25         1.1463   -3.1884   -7.2491 C.ar      1 <0>        -0.0912
     37 C26         2.5219   -3.3585   -7.4817 C.ar      1 <0>        -0.0485
     38 C27         3.0101   -3.7012   -8.7542 C.ar      1 <0>        -0.1065
     39 C28         4.3489   -3.8572   -8.9422 C.ar      1 <0>        -0.1093
     40 C29         5.2465   -3.6821   -7.8903 C.ar      1 <0>        -0.1087
     41 C30         4.8101   -3.3501   -6.6448 C.ar      1 <0>        -0.1086
     42 C31         3.4345   -3.1804   -6.4122 C.ar      1 <0>        -0.0484
     43 C32         2.9468   -2.8321   -5.1410 C.ar      1 <0>        -0.0834
     44 N4          2.1515   -0.1027    1.1714 N.4       1 <0>        -0.6216
     45 H6          1.0039    1.9031    0.0027 H         1 <0>         0.0529
     46 H7         -0.5459    1.8868   -0.8726 H         1 <0>         0.0877
     47 H8         -0.5289    1.8773    0.9072 H         1 <0>         0.0712
     48 H9         -1.0205   -0.3814    0.0098 H         1 <0>         0.1082
     49 H10         0.5123   -0.3556   -0.8948 H         1 <0>         0.1094
     50 H11        -1.2085   -2.0693    2.0610 H         1 <0>         0.4025
     51 H12        -0.9334   -5.0207    3.7072 H         1 <0>         0.0880
     52 H13        -1.9402   -3.5991    3.3795 H         1 <0>         0.0831
     53 H14        -2.3701   -5.8031    1.4407 H         1 <0>         0.0733
     54 H15        -2.7709   -6.2135    3.1190 H         1 <0>         0.0801
     55 H16        -4.7061   -5.1614    2.0021 H         1 <0>         0.0740
     56 H17        -4.0884   -4.1438    3.3167 H         1 <0>         0.0705
     57 H18        -4.5923   -2.7917    1.3254 H         1 <0>         0.0863
     58 H19        -2.8679   -2.7462    1.7143 H         1 <0>         0.0617
     59 H20        -4.7906   -2.7632   -1.2361 H         1 <0>         0.0934
     60 H21        -3.3234   -1.8385   -0.7567 H         1 <0>         0.0749
     61 H22        -3.6241   -4.0030   -2.8827 H         1 <0>         0.0926
     62 H23        -2.6579   -2.4954   -2.9519 H         1 <0>         0.0843
     63 H24        -0.6839   -3.3898   -4.0452 H         1 <0>         0.4033
     64 H25        -1.0964   -1.0327   -4.5272 H         1 <0>         0.1180
     65 H26        -1.5814    1.3804   -4.4561 H         1 <0>         0.1245
     66 H27         0.0334    2.9310   -3.4309 H         1 <0>         0.1235
     67 H28         2.1329    2.0686   -2.4761 H         1 <0>         0.1207
     68 H29         2.6141   -0.3455   -2.5397 H         1 <0>         0.1162
     69 H30        -0.3475   -2.7258   -5.8276 H         1 <0>         0.1180
     70 H31         0.4392   -3.3213   -8.0545 H         1 <0>         0.1316
     71 H32         2.3264   -3.8405   -9.5785 H         1 <0>         0.1304
     72 H33         4.7215   -4.1210   -9.9210 H         1 <0>         0.1277
     73 H34         6.3041   -3.8123   -8.0663 H         1 <0>         0.1271
     74 H35         5.5172   -3.2180   -5.8392 H         1 <0>         0.1277
     75 H36         3.6309   -2.6889   -4.3176 H         1 <0>         0.1257
     76 H37         2.5744   -0.4948    0.3435 H         1 <0>         0.4410
     77 H38         2.2086    0.9039    1.1338 H         1 <0>         0.4380
     78 H39         2.6395   -0.4370    1.9889 H         1 <0>         0.4390
@<TRIPOS>BOND
     1    1    2 1
     2    1   45 1
     3    1   46 1
     4    1   47 1
     5    2    3 1
     6    2   48 1
     7    2   49 1
     8    3    4 1
     9    3    5 1
    10    3   44 1
    11    5    6 2
    12    5    7 am
    13    7    8 1
    14    7   50 1
    15    8    9 1
    16    8   21 1
    17    8   10 1
    18   10   11 1
    19   10   51 1
    20   10   52 1
    21   11   12 1
    22   11   53 1
    23   11   54 1
    24   12   13 1
    25   12   55 1
    26   12   56 1
    27   13   14 1
    28   13   57 1
    29   13   58 1
    30   14   15 1
    31   14   20 1
    32   14   16 1
    33   16   17 1
    34   16   59 1
    35   16   60 1
    36   17   18 1
    37   17   61 1
    38   17   62 1
    39   18   19 1
    40   18   20 1
    41   18   23 1
    42   20   21 am
    43   21   22 2
    44   23   24 2
    45   23   25 am
    46   25   26 1
    47   25   63 1
    48   26   27 1
    49   26   28 1
    50   26   34 1
    51   28   33 ar
    52   28   29 ar
    53   29   30 ar
    54   29   64 1
    55   30   31 ar
    56   30   65 1
    57   31   32 ar
    58   31   66 1
    59   32   33 ar
    60   32   67 1
    61   33   68 1
    62   34   43 ar
    63   34   35 ar
    64   35   36 ar
    65   35   69 1
    66   36   37 ar
    67   36   70 1
    68   37   42 ar
    69   37   38 ar
    70   38   39 ar
    71   38   71 1
    72   39   40 ar
    73   39   72 1
    74   40   41 ar
    75   40   73 1
    76   41   42 ar
    77   41   74 1
    78   42   43 ar
    79   43   75 1
    80   44   76 1
    81   44   77 1
    82   44   78 1
@<TRIPOS>MOLECULE
CHEMBL488796
   78    82     0     0     0
SMALL
USER_CHARGES

@<TRIPOS>ATOM
      1 C1         -0.0187    1.5258    0.0104 C.3       1 <0>        -0.1719
      2 C2          0.0021   -0.0041    0.0020 C.3       1 <0>        -0.1351
      3 C3          0.7421   -0.5109    1.2415 C.3       1 <0>         0.0105
      4 H1          0.2852   -0.0874    2.1360 H         1 <0>         0.1589
      5 C4          0.6567   -2.0144    1.2978 C.2       1 <0>         0.5145
      6 O1          1.5928   -2.6893    0.9247 O.2       1 <0>        -0.4854
      7 N1         -0.4599   -2.6091    1.7626 N.am      1 <0>        -0.6967
      8 C5         -0.5428   -4.0706    1.8173 C.3       1 <0>         0.1471
      9 H2          0.4622   -4.4509    2.0633 H         1 <0>         0.1228
     10 C6         -1.4932   -4.4937    2.9314 C.3       1 <0>        -0.1282
     11 C7         -2.6081   -5.3932    2.4162 C.3       1 <0>        -0.1340
     12 C8         -3.8715   -4.5469    2.3245 C.3       1 <0>        -0.1262
     13 C9         -3.6710   -3.3856    1.3590 C.3       1 <0>        -0.1253
     14 C10        -3.3639   -3.9022   -0.0350 C.3       1 <0>         0.1493
     15 H3         -3.9803   -4.7880   -0.2401 H         1 <0>         0.0812
     16 C11        -3.7153   -2.8029   -1.0677 C.3       1 <0>        -0.1299
     17 C12        -2.9802   -3.3234   -2.3249 C.3       1 <0>        -0.1294
     18 C13        -1.7713   -4.0852   -1.7553 C.3       1 <0>         0.1120
     19 H4         -1.7087   -5.0734   -2.2106 H         1 <0>         0.1015
     20 N2         -1.9648   -4.2309   -0.2832 N.am      1 <0>        -0.6196
     21 C14        -0.9379   -4.6112    0.4850 C.2       1 <0>         0.5658
     22 O2         -0.2473   -5.5305    0.0483 O.2       1 <0>        -0.5150
     23 C15        -0.5088   -3.3099   -2.0382 C.2       1 <0>         0.5192
     24 O3          0.1731   -2.9056   -1.1204 O.2       1 <0>        -0.5215
     25 N3         -0.1385   -3.0665   -3.3111 N.am      1 <0>        -0.7186
     26 C16         1.0878   -2.3135   -3.5859 C.3       1 <0>         0.2438
     27 H5          1.2243   -1.5496   -2.8204 H         1 <0>         0.0938
     28 C17         2.2668   -3.2521   -3.5748 C.ar      1 <0>        -0.0933
     29 C18         2.1564   -4.5071   -4.1435 C.ar      1 <0>        -0.0986
     30 C19         3.2379   -5.3681   -4.1334 C.ar      1 <0>        -0.1139
     31 C20         4.4298   -4.9738   -3.5548 C.ar      1 <0>        -0.1125
     32 C21         4.5404   -3.7184   -2.9868 C.ar      1 <0>        -0.1171
     33 C22         3.4603   -2.8558   -3.0008 C.ar      1 <0>        -0.1026
     34 C23         0.9815   -1.6565   -4.9379 C.ar      1 <0>        -0.0898
     35 C24         0.3935   -2.3504   -5.9940 C.ar      1 <0>        -0.1154
     36 C25         0.2822   -1.7863   -7.2275 C.ar      1 <0>        -0.0891
     37 C26         0.7659   -0.4845   -7.4430 C.ar      1 <0>        -0.0496
     38 C27         0.6683    0.1313   -8.7025 C.ar      1 <0>        -0.1042
     39 C28         1.1475    1.3935   -8.8738 C.ar      1 <0>        -0.1111
     40 C29         1.7351    2.0876   -7.8177 C.ar      1 <0>        -0.1077
     41 C30         1.8468    1.5232   -6.5843 C.ar      1 <0>        -0.1113
     42 C31         1.3634    0.2213   -6.3690 C.ar      1 <0>        -0.0474
     43 C32         1.4560   -0.3923   -5.1080 C.ar      1 <0>        -0.0895
     44 N4          2.1515   -0.1027    1.1714 N.4       1 <0>        -0.6215
     45 H6          1.0039    1.9031    0.0027 H         1 <0>         0.0541
     46 H7         -0.5459    1.8868   -0.8726 H         1 <0>         0.0867
     47 H8         -0.5289    1.8773    0.9072 H         1 <0>         0.0742
     48 H9         -1.0205   -0.3814    0.0098 H         1 <0>         0.1111
     49 H10         0.5123   -0.3556   -0.8948 H         1 <0>         0.0988
     50 H11        -1.2085   -2.0693    2.0610 H         1 <0>         0.4022
     51 H12        -0.9334   -5.0207    3.7072 H         1 <0>         0.0877
     52 H13        -1.9402   -3.5991    3.3795 H         1 <0>         0.0830
     53 H14        -2.3701   -5.8031    1.4407 H         1 <0>         0.0733
     54 H15        -2.7709   -6.2135    3.1190 H         1 <0>         0.0800
     55 H16        -4.7061   -5.1614    2.0021 H         1 <0>         0.0739
     56 H17        -4.0884   -4.1438    3.3167 H         1 <0>         0.0705
     57 H18        -4.5923   -2.7917    1.3254 H         1 <0>         0.0863
     58 H19        -2.8679   -2.7462    1.7143 H         1 <0>         0.0616
     59 H20        -4.7906   -2.7632   -1.2361 H         1 <0>         0.0935
     60 H21        -3.3234   -1.8385   -0.7567 H         1 <0>         0.0746
     61 H22        -3.6241   -4.0030   -2.8827 H         1 <0>         0.0923
     62 H23        -2.6579   -2.4954   -2.9519 H         1 <0>         0.0857
     63 H24        -0.6839   -3.3898   -4.0452 H         1 <0>         0.4032
     64 H25         1.2252   -4.8152   -4.5955 H         1 <0>         0.1146
     65 H26         3.1514   -6.3489   -4.5771 H         1 <0>         0.1236
     66 H27         5.2745   -5.6467   -3.5462 H         1 <0>         0.1236
     67 H28         5.4715   -3.4105   -2.5345 H         1 <0>         0.1214
     68 H29         3.5478   -1.8736   -2.5604 H         1 <0>         0.1110
     69 H30         0.0210   -3.3509   -5.8311 H         1 <0>         0.1193
     70 H31        -0.1751   -2.3363   -8.0367 H         1 <0>         0.1321
     71 H32         0.2158   -0.3945   -9.5302 H         1 <0>         0.1306
     72 H33         1.0716    1.8643   -9.8429 H         1 <0>         0.1276
     73 H34         2.1078    3.0881   -7.9805 H         1 <0>         0.1264
     74 H35         2.3049    2.0729   -5.7753 H         1 <0>         0.1257
     75 H36         1.9049    0.1351   -4.2793 H         1 <0>         0.1224
     76 H37         2.5744   -0.4948    0.3435 H         1 <0>         0.4418
     77 H38         2.2086    0.9039    1.1338 H         1 <0>         0.4382
     78 H39         2.6395   -0.4370    1.9889 H         1 <0>         0.4396
@<TRIPOS>BOND
     1    1    2 1
     2    1   45 1
     3    1   46 1
     4    1   47 1
     5    2    3 1
     6    2   48 1
     7    2   49 1
     8    3    4 1
     9    3    5 1
    10    3   44 1
    11    5    6 2
    12    5    7 am
    13    7    8 1
    14    7   50 1
    15    8    9 1
    16    8   21 1
    17    8   10 1
    18   10   11 1
    19   10   51 1
    20   10   52 1
    21   11   12 1
    22   11   53 1
    23   11   54 1
    24   12   13 1
    25   12   55 1
    26   12   56 1
    27   13   14 1
    28   13   57 1
    29   13   58 1
    30   14   15 1
    31   14   20 1
    32   14   16 1
    33   16   17 1
    34   16   59 1
    35   16   60 1
    36   17   18 1
    37   17   61 1
    38   17   62 1
    39   18   19 1
    40   18   20 1
    41   18   23 1
    42   20   21 am
    43   21   22 2
    44   23   24 2
    45   23   25 am
    46   25   26 1
    47   25   63 1
    48   26   27 1
    49   26   28 1
    50   26   34 1
    51   28   33 ar
    52   28   29 ar
    53   29   30 ar
    54   29   64 1
    55   30   31 ar
    56   30   65 1
    57   31   32 ar
    58   31   66 1
    59   32   33 ar
    60   32   67 1
    61   33   68 1
    62   34   43 ar
    63   34   35 ar
    64   35   36 ar
    65   35   69 1
    66   36   37 ar
    67   36   70 1
    68   37   42 ar
    69   37   38 ar
    70   38   39 ar
    71   38   71 1
    72   39   40 ar
    73   39   72 1
    74   40   41 ar
    75   40   73 1
    76   41   42 ar
    77   41   74 1
    78   42   43 ar
    79   43   75 1
    80   44   76 1
    81   44   77 1
    82   44   78 1
@<TRIPOS>MOLECULE
CHEMBL487973
   71    74     0     0     0
SMALL
USER_CHARGES

@<TRIPOS>ATOM
      1 C1         -0.0187    1.5258    0.0104 C.3       1 <0>        -0.1747
      2 C2          0.0021   -0.0041    0.0020 C.3       1 <0>         0.0067
      3 H1         -1.0205   -0.3814    0.0098 H         1 <0>         0.1600
      4 C3          0.7074   -0.4901   -1.2379 C.2       1 <0>         0.5181
      5 O1          1.7039   -1.1744   -1.1398 O.2       1 <0>        -0.4930
      6 N1          0.2309   -0.1642   -2.4557 N.am      1 <0>        -0.6964
      7 C4          0.9166   -0.6366   -3.6610 C.3       1 <0>         0.1465
      8 H2          1.3147   -1.6414   -3.4438 H         1 <0>         0.1233
      9 C5         -0.0798   -0.7617   -4.8077 C.3       1 <0>        -0.1285
     10 C6          0.3497    0.0463   -6.0243 C.3       1 <0>        -0.1339
     11 C7         -0.5079    1.3049   -6.0621 C.3       1 <0>        -0.1264
     12 C8         -0.2980    2.1357   -4.8025 C.3       1 <0>        -0.1255
     13 C9          1.1515    2.5729   -4.6914 C.3       1 <0>         0.1494
     14 H3          1.5300    2.8389   -5.6876 H         1 <0>         0.0813
     15 C10         1.2318    3.8222   -3.7797 C.3       1 <0>        -0.1303
     16 C11         2.7443    3.8662   -3.4601 C.3       1 <0>        -0.1280
     17 C12         3.1728    2.3895   -3.5038 C.3       1 <0>         0.1106
     18 H4          4.0574    2.2793   -4.1308 H         1 <0>         0.1020
     19 N2          2.0517    1.5970   -4.0877 N.am      1 <0>        -0.6197
     20 C13         2.0603    0.2633   -3.9854 C.2       1 <0>         0.5669
     21 O2          3.1375   -0.2889   -4.2035 O.2       1 <0>        -0.5175
     22 C14         3.4731    1.9108   -2.1055 C.2       1 <0>         0.5181
     23 O3          2.8268    1.0052   -1.6226 O.2       1 <0>        -0.5303
     24 N3          4.4598    2.4893   -1.3925 N.am      1 <0>        -0.7203
     25 C15         4.7515    2.0242   -0.0342 C.3       1 <0>         0.1706
     26 H5          3.8251    1.7271    0.4572 H         1 <0>         0.0785
     27 C16         5.7075    0.8280   -0.0949 C.3       1 <0>        -0.1342
     28 C17         6.0396    0.3493    1.3184 C.3       1 <0>        -0.1126
     29 C18         6.6783    1.4871    2.1223 C.3       1 <0>        -0.1166
     30 C19         5.6995    2.6572    2.1789 C.3       1 <0>        -0.0457
     31 C20         5.4148    3.1468    0.7598 C.3       1 <0>        -0.0657
     32 C21         4.5515    4.3754    0.8066 C.2       1 <0>        -0.1561
     33 C22         4.7337    5.2599    1.7848 C.2       1 <0>        -0.1169
     34 C23         5.7522    5.0179    2.8185 C.2       1 <0>        -0.1365
     35 C24         6.2366    3.7883    3.0087 C.2       1 <0>        -0.1397
     36 N4          0.7126   -0.4907    1.1921 N.4       1 <0>        -0.4937
     37 C25        -0.0398   -0.1189    2.3978 C.3       1 <0>        -0.0499
     38 H6          1.0039    1.9031    0.0027 H         1 <0>         0.0914
     39 H7         -0.5459    1.8868   -0.8726 H         1 <0>         0.1041
     40 H8         -0.5289    1.8773    0.9072 H         1 <0>         0.0922
     41 H9         -0.5660    0.3831   -2.5342 H         1 <0>         0.4019
     42 H10        -0.1811   -1.8121   -5.0893 H         1 <0>         0.0882
     43 H11        -1.0588   -0.4011   -4.4723 H         1 <0>         0.0830
     44 H12         1.3982    0.3190   -5.9711 H         1 <0>         0.0731
     45 H13         0.1774   -0.5377   -6.9312 H         1 <0>         0.0803
     46 H14        -0.2652    1.8920   -6.9422 H         1 <0>         0.0741
     47 H15        -1.5574    1.0046   -6.1126 H         1 <0>         0.0707
     48 H16        -0.9367    3.0256   -4.8564 H         1 <0>         0.0863
     49 H17        -0.5909    1.5603   -3.9291 H         1 <0>         0.0615
     50 H18         0.9243    4.7148   -4.3227 H         1 <0>         0.0935
     51 H19         0.6449    3.6819   -2.8762 H         1 <0>         0.0745
     52 H20         3.2739    4.4342   -4.2246 H         1 <0>         0.0924
     53 H21         2.9165    4.2921   -2.4743 H         1 <0>         0.0841
     54 H22         4.9767    3.2135   -1.7786 H         1 <0>         0.4042
     55 H23         5.2366    0.0168   -0.6501 H         1 <0>         0.0725
     56 H24         6.6260    1.1247   -0.6013 H         1 <0>         0.0678
     57 H25         5.1249    0.0251    1.8146 H         1 <0>         0.0567
     58 H26         6.7348   -0.4883    1.2623 H         1 <0>         0.0712
     59 H27         6.8954    1.1430    3.1335 H         1 <0>         0.0726
     60 H28         7.6005    1.8052    1.6362 H         1 <0>         0.0706
     61 H29         4.7618    2.3129    2.6152 H         1 <0>         0.0750
     62 H30         6.3592    3.4077    0.2821 H         1 <0>         0.0868
     63 H31         3.7925    4.5391    0.0559 H         1 <0>         0.1153
     64 H32         4.1327    6.1565    1.8198 H         1 <0>         0.1184
     65 H33         6.1134    5.8375    3.4218 H         1 <0>         0.1203
     66 H34         6.9981    3.6068    3.7528 H         1 <0>         0.1236
     67 H35         0.7982   -1.4950    1.1455 H         1 <0>         0.4361
     68 H36         0.4873   -0.4799    3.2808 H         1 <0>         0.1317
     69 H37        -0.1324    0.9660    2.4481 H         1 <0>         0.1253
     70 H38        -1.0328   -0.5668    2.3589 H         1 <0>         0.1262
     71 H39         1.6317   -0.0761    1.2281 H         1 <0>         0.4347
@<TRIPOS>BOND
     1    1    2 1
     2    1   38 1
     3    1   39 1
     4    1   40 1
     5    2    3 1
     6    2    4 1
     7    2   36 1
     8    4    5 2
     9    4    6 am
    10    6    7 1
    11    6   41 1
    12    7    8 1
    13    7   20 1
    14    7    9 1
    15    9   10 1
    16    9   42 1
    17    9   43 1
    18   10   11 1
    19   10   44 1
    20   10   45 1
    21   11   12 1
    22   11   46 1
    23   11   47 1
    24   12   13 1
    25   12   48 1
    26   12   49 1
    27   13   14 1
    28   13   19 1
    29   13   15 1
    30   15   16 1
    31   15   50 1
    32   15   51 1
    33   16   17 1
    34   16   52 1
    35   16   53 1
    36   17   18 1
    37   17   19 1
    38   17   22 1
    39   19   20 am
    40   20   21 2
    41   22   23 2
    42   22   24 am
    43   24   25 1
    44   24   54 1
    45   25   26 1
    46   25   31 1
    47   25   27 1
    48   27   28 1
    49   27   55 1
    50   27   56 1
    51   28   29 1
    52   28   57 1
    53   28   58 1
    54   29   30 1
    55   29   59 1
    56   29   60 1
    57   30   35 1
    58   30   31 1
    59   30   61 1
    60   31   32 1
    61   31   62 1
    62   32   33 2
    63   32   63 1
    64   33   34 1
    65   33   64 1
    66   34   35 2
    67   34   65 1
    68   35   66 1
    69   36   37 1
    70   36   67 1
    71   36   71 1
    72   37   68 1
    73   37   69 1
    74   37   70 1
@<TRIPOS>MOLECULE
CHEMBL487973__1
   71    74     0     0     0
SMALL
USER_CHARGES

@<TRIPOS>ATOM
      1 C1         -0.0187    1.5258    0.0104 C.3       1 <0>        -0.1746
      2 C2          0.0021   -0.0041    0.0020 C.3       1 <0>         0.0067
      3 H1         -1.0205   -0.3814    0.0098 H         1 <0>         0.1599
      4 C3          0.7074   -0.4901   -1.2379 C.2       1 <0>         0.5178
      5 O1          1.7039   -1.1744   -1.1398 O.2       1 <0>        -0.4928
      6 N1          0.2309   -0.1642   -2.4557 N.am      1 <0>        -0.6964
      7 C4          0.9166   -0.6366   -3.6610 C.3       1 <0>         0.1465
      8 H2          1.3147   -1.6414   -3.4438 H         1 <0>         0.1233
      9 C5         -0.0798   -0.7617   -4.8077 C.3       1 <0>        -0.1285
     10 C6          0.3497    0.0463   -6.0243 C.3       1 <0>        -0.1339
     11 C7         -0.5079    1.3049   -6.0621 C.3       1 <0>        -0.1264
     12 C8         -0.2980    2.1357   -4.8025 C.3       1 <0>        -0.1255
     13 C9          1.1515    2.5729   -4.6914 C.3       1 <0>         0.1493
     14 H3          1.5300    2.8389   -5.6876 H         1 <0>         0.0813
     15 C10         1.2318    3.8222   -3.7797 C.3       1 <0>        -0.1302
     16 C11         2.7443    3.8662   -3.4601 C.3       1 <0>        -0.1285
     17 C12         3.1728    2.3895   -3.5038 C.3       1 <0>         0.1105
     18 H4          4.0574    2.2793   -4.1308 H         1 <0>         0.1017
     19 N2          2.0517    1.5970   -4.0877 N.am      1 <0>        -0.6197
     20 C13         2.0603    0.2633   -3.9854 C.2       1 <0>         0.5668
     21 O2          3.1375   -0.2889   -4.2035 O.2       1 <0>        -0.5175
     22 C14         3.4731    1.9108   -2.1055 C.2       1 <0>         0.5178
     23 O3          2.8268    1.0052   -1.6226 O.2       1 <0>        -0.5306
     24 N3          4.4598    2.4893   -1.3925 N.am      1 <0>        -0.7219
     25 C15         4.7515    2.0242   -0.0342 C.3       1 <0>         0.1696
     26 H5          3.8231    1.7280    0.4540 H         1 <0>         0.0779
     27 C16         5.6958    0.8226   -0.1009 C.3       1 <0>        -0.1315
     28 C17         5.9998    0.3450    1.3214 C.3       1 <0>        -0.1109
     29 C18         6.6835    1.4720    2.0958 C.3       1 <0>        -0.1170
     30 C19         5.7562    2.6882    2.1707 C.3       1 <0>        -0.0444
     31 C20         5.4020    3.1524    0.7579 C.3       1 <0>        -0.0600
     32 C21         6.6426    3.6423    0.0607 C.2       1 <0>        -0.1566
     33 C22         7.5612    4.3096    0.7563 C.2       1 <0>        -0.1170
     34 C23         7.3399    4.5659    2.1898 C.2       1 <0>        -0.1273
     35 C24         6.4884    3.8058    2.8774 C.2       1 <0>        -0.1499
     36 N4          0.7126   -0.4907    1.1921 N.4       1 <0>        -0.4937
     37 C25        -0.0398   -0.1189    2.3978 C.3       1 <0>        -0.0498
     38 H6          1.0039    1.9031    0.0027 H         1 <0>         0.0912
     39 H7         -0.5459    1.8868   -0.8726 H         1 <0>         0.1041
     40 H8         -0.5289    1.8773    0.9072 H         1 <0>         0.0922
     41 H9         -0.5660    0.3831   -2.5342 H         1 <0>         0.4019
     42 H10        -0.1811   -1.8121   -5.0893 H         1 <0>         0.0882
     43 H11        -1.0588   -0.4011   -4.4723 H         1 <0>         0.0830
     44 H12         1.3982    0.3190   -5.9711 H         1 <0>         0.0731
     45 H13         0.1774   -0.5377   -6.9312 H         1 <0>         0.0803
     46 H14        -0.2652    1.8920   -6.9422 H         1 <0>         0.0741
     47 H15        -1.5574    1.0046   -6.1126 H         1 <0>         0.0707
     48 H16        -0.9367    3.0256   -4.8564 H         1 <0>         0.0864
     49 H17        -0.5909    1.5603   -3.9291 H         1 <0>         0.0615
     50 H18         0.9243    4.7148   -4.3227 H         1 <0>         0.0936
     51 H19         0.6449    3.6819   -2.8762 H         1 <0>         0.0746
     52 H20         3.2739    4.4342   -4.2246 H         1 <0>         0.0923
     53 H21         2.9165    4.2921   -2.4743 H         1 <0>         0.0846
     54 H22         4.9767    3.2135   -1.7786 H         1 <0>         0.4035
     55 H23         5.2218    0.0174   -0.6622 H         1 <0>         0.0709
     56 H24         6.6233    1.1148   -0.5933 H         1 <0>         0.0692
     57 H25         5.0700    0.0723    1.8204 H         1 <0>         0.0561
     58 H26         6.6599   -0.5215    1.2811 H         1 <0>         0.0697
     59 H27         6.9145    1.1300    3.1046 H         1 <0>         0.0676
     60 H28         7.6071    1.7514    1.5889 H         1 <0>         0.0706
     61 H29         4.8547    2.4298    2.7263 H         1 <0>         0.0804
     62 H30         4.7001    3.9834    0.8280 H         1 <0>         0.0824
     63 H31         6.7865    3.4541   -0.9930 H         1 <0>         0.1159
     64 H32         8.4612    4.6604    0.2732 H         1 <0>         0.1218
     65 H33         7.8644    5.3710    2.6829 H         1 <0>         0.1204
     66 H34         6.3257    3.9828    3.9303 H         1 <0>         0.1207
     67 H35         0.7982   -1.4950    1.1455 H         1 <0>         0.4362
     68 H36         0.4873   -0.4799    3.2808 H         1 <0>         0.1317
     69 H37        -0.1324    0.9660    2.4481 H         1 <0>         0.1254
     70 H38        -1.0328   -0.5668    2.3589 H         1 <0>         0.1261
     71 H39         1.6317   -0.0761    1.2281 H         1 <0>         0.4348
@<TRIPOS>BOND
     1    1    2 1
     2    1   38 1
     3    1   39 1
     4    1   40 1
     5    2    3 1
     6    2    4 1
     7    2   36 1
     8    4    5 2
     9    4    6 am
    10    6    7 1
    11    6   41 1
    12    7    8 1
    13    7   20 1
    14    7    9 1
    15    9   10 1
    16    9   42 1
    17    9   43 1
    18   10   11 1
    19   10   44 1
    20   10   45 1
    21   11   12 1
    22   11   46 1
    23   11   47 1
    24   12   13 1
    25   12   48 1
    26   12   49 1
    27   13   14 1
    28   13   19 1
    29   13   15 1
    30   15   16 1
    31   15   50 1
    32   15   51 1
    33   16   17 1
    34   16   52 1
    35   16   53 1
    36   17   18 1
    37   17   19 1
    38   17   22 1
    39   19   20 am
    40   20   21 2
    41   22   23 2
    42   22   24 am
    43   24   25 1
    44   24   54 1
    45   25   26 1
    46   25   31 1
    47   25   27 1
    48   27   28 1
    49   27   55 1
    50   27   56 1
    51   28   29 1
    52   28   57 1
    53   28   58 1
    54   29   30 1
    55   29   59 1
    56   29   60 1
    57   30   35 1
    58   30   31 1
    59   30   61 1
    60   31   32 1
    61   31   62 1
    62   32   33 2
    63   32   63 1
    64   33   34 1
    65   33   64 1
    66   34   35 2
    67   34   65 1
    68   35   66 1
    69   36   37 1
    70   36   67 1
    71   36   71 1
    72   37   68 1
    73   37   69 1
    74   37   70 1
@<TRIPOS>MOLECULE
CHEMBL487973__2
   71    74     0     0     0
SMALL
USER_CHARGES

@<TRIPOS>ATOM
      1 C1         -0.0187    1.5258    0.0104 C.3       1 <0>        -0.1746
      2 C2          0.0021   -0.0041    0.0020 C.3       1 <0>         0.0068
      3 H1         -1.0205   -0.3814    0.0098 H         1 <0>         0.1596
      4 C3          0.7074   -0.4901   -1.2379 C.2       1 <0>         0.5184
      5 O1          1.7039   -1.1744   -1.1398 O.2       1 <0>        -0.4928
      6 N1          0.2309   -0.1642   -2.4557 N.am      1 <0>        -0.6964
      7 C4          0.9166   -0.6366   -3.6610 C.3       1 <0>         0.1465
      8 H2          1.3147   -1.6414   -3.4438 H         1 <0>         0.1231
      9 C5         -0.0798   -0.7617   -4.8077 C.3       1 <0>        -0.1285
     10 C6          0.3497    0.0463   -6.0243 C.3       1 <0>        -0.1339
     11 C7         -0.5079    1.3049   -6.0621 C.3       1 <0>        -0.1263
     12 C8         -0.2980    2.1357   -4.8025 C.3       1 <0>        -0.1255
     13 C9          1.1515    2.5729   -4.6914 C.3       1 <0>         0.1495
     14 H3          1.5300    2.8389   -5.6876 H         1 <0>         0.0810
     15 C10         1.2318    3.8222   -3.7797 C.3       1 <0>        -0.1301
     16 C11         2.7443    3.8662   -3.4601 C.3       1 <0>        -0.1279
     17 C12         3.1728    2.3895   -3.5038 C.3       1 <0>         0.1107
     18 H4          4.0574    2.2793   -4.1308 H         1 <0>         0.1011
     19 N2          2.0517    1.5970   -4.0877 N.am      1 <0>        -0.6196
     20 C13         2.0603    0.2633   -3.9854 C.2       1 <0>         0.5672
     21 O2          3.1375   -0.2889   -4.2035 O.2       1 <0>        -0.5180
     22 C14         3.4731    1.9108   -2.1055 C.2       1 <0>         0.5183
     23 O3          2.8268    1.0052   -1.6226 O.2       1 <0>        -0.5303
     24 N3          4.4598    2.4893   -1.3925 N.am      1 <0>        -0.7197
     25 C15         4.7515    2.0242   -0.0342 C.3       1 <0>         0.1691
     26 H5          3.8233    1.7279    0.4544 H         1 <0>         0.0823
     27 C16         5.6966    0.8242   -0.1000 C.3       1 <0>        -0.1337
     28 C17         5.9807    0.3288    1.3203 C.3       1 <0>        -0.1115
     29 C18         6.6544    1.4483    2.1157 C.3       1 <0>        -0.1161
     30 C19         5.7455    2.6704    2.1703 C.3       1 <0>        -0.0551
     31 C20         5.4065    3.1564    0.7615 C.3       1 <0>        -0.0633
     32 C21         4.4234    4.2994    0.8683 C.2       1 <0>        -0.1411
     33 C22         3.4859    4.2711    1.8106 C.2       1 <0>        -0.1304
     34 C23         3.4067    3.1251    2.7326 C.2       1 <0>        -0.1458
     35 C24         4.4774    2.3564    2.9171 C.2       1 <0>        -0.1297
     36 N4          0.7126   -0.4907    1.1921 N.4       1 <0>        -0.4939
     37 C25        -0.0398   -0.1189    2.3978 C.3       1 <0>        -0.0503
     38 H6          1.0039    1.9031    0.0027 H         1 <0>         0.0929
     39 H7         -0.5459    1.8868   -0.8726 H         1 <0>         0.1036
     40 H8         -0.5289    1.8773    0.9072 H         1 <0>         0.0918
     41 H9         -0.5660    0.3831   -2.5342 H         1 <0>         0.4018
     42 H10        -0.1811   -1.8121   -5.0893 H         1 <0>         0.0881
     43 H11        -1.0588   -0.4011   -4.4723 H         1 <0>         0.0830
     44 H12         1.3982    0.3190   -5.9711 H         1 <0>         0.0731
     45 H13         0.1774   -0.5377   -6.9312 H         1 <0>         0.0802
     46 H14        -0.2652    1.8920   -6.9422 H         1 <0>         0.0740
     47 H15        -1.5574    1.0046   -6.1126 H         1 <0>         0.0706
     48 H16        -0.9367    3.0256   -4.8564 H         1 <0>         0.0862
     49 H17        -0.5909    1.5603   -3.9291 H         1 <0>         0.0615
     50 H18         0.9243    4.7148   -4.3227 H         1 <0>         0.0930
     51 H19         0.6449    3.6819   -2.8762 H         1 <0>         0.0744
     52 H20         3.2739    4.4342   -4.2246 H         1 <0>         0.0916
     53 H21         2.9165    4.2921   -2.4743 H         1 <0>         0.0848
     54 H22         4.9767    3.2135   -1.7786 H         1 <0>         0.4021
     55 H23         5.2315    0.0257   -0.6781 H         1 <0>         0.0718
     56 H24         6.6311    1.1223   -0.5755 H         1 <0>         0.0673
     57 H25         5.0440    0.0511    1.8036 H         1 <0>         0.0576
     58 H26         6.6413   -0.5372    1.2789 H         1 <0>         0.0696
     59 H27         6.8551    1.1014    3.1293 H         1 <0>         0.0714
     60 H28         7.5946    1.7181    1.6349 H         1 <0>         0.0710
     61 H29         6.2685    3.4739    2.6890 H         1 <0>         0.0885
     62 H30         6.3151    3.4830    0.2558 H         1 <0>         0.0914
     63 H31         4.4822    5.1332    0.1844 H         1 <0>         0.1181
     64 H32         2.7835    5.0867    1.8997 H         1 <0>         0.1170
     65 H33         2.4864    2.9093    3.2549 H         1 <0>         0.1125
     66 H34         4.4381    1.5176    3.5963 H         1 <0>         0.1183
     67 H35         0.7982   -1.4950    1.1455 H         1 <0>         0.4357
     68 H36         0.4873   -0.4799    3.2808 H         1 <0>         0.1314
     69 H37        -0.1324    0.9660    2.4481 H         1 <0>         0.1255
     70 H38        -1.0328   -0.5668    2.3589 H         1 <0>         0.1265
     71 H39         1.6317   -0.0761    1.2281 H         1 <0>         0.4349
@<TRIPOS>BOND
     1    1    2 1
     2    1   38 1
     3    1   39 1
     4    1   40 1
     5    2    3 1
     6    2    4 1
     7    2   36 1
     8    4    5 2
     9    4    6 am
    10    6    7 1
    11    6   41 1
    12    7    8 1
    13    7   20 1
    14    7    9 1
    15    9   10 1
    16    9   42 1
    17    9   43 1
    18   10   11 1
    19   10   44 1
    20   10   45 1
    21   11   12 1
    22   11   46 1
    23   11   47 1
    24   12   13 1
    25   12   48 1
    26   12   49 1
    27   13   14 1
    28   13   19 1
    29   13   15 1
    30   15   16 1
    31   15   50 1
    32   15   51 1
    33   16   17 1
    34   16   52 1
    35   16   53 1
    36   17   18 1
    37   17   19 1
    38   17   22 1
    39   19   20 am
    40   20   21 2
    41   22   23 2
    42   22   24 am
    43   24   25 1
    44   24   54 1
    45   25   26 1
    46   25   31 1
    47   25   27 1
    48   27   28 1
    49   27   55 1
    50   27   56 1
    51   28   29 1
    52   28   57 1
    53   28   58 1
    54   29   30 1
    55   29   59 1
    56   29   60 1
    57   30   35 1
    58   30   31 1
    59   30   61 1
    60   31   32 1
    61   31   62 1
    62   32   33 2
    63   32   63 1
    64   33   34 1
    65   33   64 1
    66   34   35 2
    67   34   65 1
    68   35   66 1
    69   36   37 1
    70   36   67 1
    71   36   71 1
    72   37   68 1
    73   37   69 1
    74   37   70 1
@<TRIPOS>MOLECULE
CHEMBL487973__3
   71    74     0     0     0
SMALL
USER_CHARGES

@<TRIPOS>ATOM
      1 C1         -0.0187    1.5258    0.0104 C.3       1 <0>        -0.1745
      2 C2          0.0021   -0.0041    0.0020 C.3       1 <0>         0.0069
      3 H1         -1.0205   -0.3814    0.0098 H         1 <0>         0.1596
      4 C3          0.7074   -0.4901   -1.2379 C.2       1 <0>         0.5181
      5 O1          1.7039   -1.1744   -1.1398 O.2       1 <0>        -0.4931
      6 N1          0.2309   -0.1642   -2.4557 N.am      1 <0>        -0.6963
      7 C4          0.9166   -0.6366   -3.6610 C.3       1 <0>         0.1465
      8 H2          1.3147   -1.6414   -3.4438 H         1 <0>         0.1231
      9 C5         -0.0798   -0.7617   -4.8077 C.3       1 <0>        -0.1285
     10 C6          0.3497    0.0463   -6.0243 C.3       1 <0>        -0.1339
     11 C7         -0.5079    1.3049   -6.0621 C.3       1 <0>        -0.1264
     12 C8         -0.2980    2.1357   -4.8025 C.3       1 <0>        -0.1254
     13 C9          1.1515    2.5729   -4.6914 C.3       1 <0>         0.1494
     14 H3          1.5300    2.8389   -5.6876 H         1 <0>         0.0810
     15 C10         1.2318    3.8222   -3.7797 C.3       1 <0>        -0.1298
     16 C11         2.7443    3.8662   -3.4601 C.3       1 <0>        -0.1285
     17 C12         3.1728    2.3895   -3.5038 C.3       1 <0>         0.1107
     18 H4          4.0574    2.2793   -4.1308 H         1 <0>         0.1007
     19 N2          2.0517    1.5970   -4.0877 N.am      1 <0>        -0.6195
     20 C13         2.0603    0.2633   -3.9854 C.2       1 <0>         0.5671
     21 O2          3.1375   -0.2889   -4.2035 O.2       1 <0>        -0.5176
     22 C14         3.4731    1.9108   -2.1055 C.2       1 <0>         0.5178
     23 O3          2.8268    1.0052   -1.6226 O.2       1 <0>        -0.5325
     24 N3          4.4598    2.4893   -1.3925 N.am      1 <0>        -0.7145
     25 C15         4.7515    2.0242   -0.0342 C.3       1 <0>         0.1693
     26 H5          3.8251    1.7271    0.4572 H         1 <0>         0.0791
     27 C16         5.7075    0.8280   -0.0949 C.3       1 <0>        -0.1318
     28 C17         7.0198    1.2382   -0.7631 C.3       1 <0>        -0.1191
     29 C18         7.6700    2.3865    0.0161 C.3       1 <0>        -0.1133
     30 C19         6.7031    3.5674    0.0474 C.3       1 <0>        -0.0546
     31 C20         5.4148    3.1468    0.7598 C.3       1 <0>        -0.0632
     32 C21         4.5022    4.3305    0.9112 C.2       1 <0>        -0.1569
     33 C22         5.0282    5.5281    1.1597 C.2       1 <0>        -0.1138
     34 C23         6.4873    5.6875    1.2575 C.2       1 <0>        -0.1400
     35 C24         7.3033    4.7556    0.7436 C.2       1 <0>        -0.1361
     36 N4          0.7126   -0.4907    1.1921 N.4       1 <0>        -0.4935
     37 C25        -0.0398   -0.1189    2.3978 C.3       1 <0>        -0.0495
     38 H6          1.0039    1.9031    0.0027 H         1 <0>         0.0915
     39 H7         -0.5459    1.8868   -0.8726 H         1 <0>         0.1039
     40 H8         -0.5289    1.8773    0.9072 H         1 <0>         0.0920
     41 H9         -0.5660    0.3831   -2.5342 H         1 <0>         0.4018
     42 H10        -0.1811   -1.8121   -5.0893 H         1 <0>         0.0881
     43 H11        -1.0588   -0.4011   -4.4723 H         1 <0>         0.0830
     44 H12         1.3982    0.3190   -5.9711 H         1 <0>         0.0731
     45 H13         0.1774   -0.5377   -6.9312 H         1 <0>         0.0802
     46 H14        -0.2652    1.8920   -6.9422 H         1 <0>         0.0740
     47 H15        -1.5574    1.0046   -6.1126 H         1 <0>         0.0707
     48 H16        -0.9367    3.0256   -4.8564 H         1 <0>         0.0862
     49 H17        -0.5909    1.5603   -3.9291 H         1 <0>         0.0615
     50 H18         0.9243    4.7148   -4.3227 H         1 <0>         0.0932
     51 H19         0.6449    3.6819   -2.8762 H         1 <0>         0.0744
     52 H20         3.2739    4.4342   -4.2246 H         1 <0>         0.0915
     53 H21         2.9165    4.2921   -2.4743 H         1 <0>         0.0849
     54 H22         4.9767    3.2135   -1.7786 H         1 <0>         0.4026
     55 H23         5.9113    0.4765    0.9165 H         1 <0>         0.0708
     56 H24         5.2454    0.0247   -0.6686 H         1 <0>         0.0721
     57 H25         7.6977    0.3850   -0.7826 H         1 <0>         0.0682
     58 H26         6.8196    1.5621   -1.7845 H         1 <0>         0.0617
     59 H27         7.8838    2.0621    1.0346 H         1 <0>         0.0688
     60 H28         8.5954    2.6848   -0.4767 H         1 <0>         0.0722
     61 H29         6.4530    3.8466   -0.9761 H         1 <0>         0.0751
     62 H30         5.6662    2.7765    1.7536 H         1 <0>         0.0932
     63 H31         3.4327    4.2115    0.8192 H         1 <0>         0.1124
     64 H32         4.3825    6.3841    1.2894 H         1 <0>         0.1182
     65 H33         6.9033    6.5573    1.7441 H         1 <0>         0.1202
     66 H34         8.3753    4.8555    0.8288 H         1 <0>         0.1236
     67 H35         0.7982   -1.4950    1.1455 H         1 <0>         0.4361
     68 H36         0.4873   -0.4799    3.2808 H         1 <0>         0.1316
     69 H37        -0.1324    0.9660    2.4481 H         1 <0>         0.1252
     70 H38        -1.0328   -0.5668    2.3589 H         1 <0>         0.1258
     71 H39         1.6317   -0.0761    1.2281 H         1 <0>         0.4350
@<TRIPOS>BOND
     1    1    2 1
     2    1   38 1
     3    1   39 1
     4    1   40 1
     5    2    3 1
     6    2    4 1
     7    2   36 1
     8    4    5 2
     9    4    6 am
    10    6    7 1
    11    6   41 1
    12    7    8 1
    13    7   20 1
    14    7    9 1
    15    9   10 1
    16    9   42 1
    17    9   43 1
    18   10   11 1
    19   10   44 1
    20   10   45 1
    21   11   12 1
    22   11   46 1
    23   11   47 1
    24   12   13 1
    25   12   48 1
    26   12   49 1
    27   13   14 1
    28   13   19 1
    29   13   15 1
    30   15   16 1
    31   15   50 1
    32   15   51 1
    33   16   17 1
    34   16   52 1
    35   16   53 1
    36   17   18 1
    37   17   19 1
    38   17   22 1
    39   19   20 am
    40   20   21 2
    41   22   23 2
    42   22   24 am
    43   24   25 1
    44   24   54 1
    45   25   26 1
    46   25   31 1
    47   25   27 1
    48   27   28 1
    49   27   55 1
    50   27   56 1
    51   28   29 1
    52   28   57 1
    53   28   58 1
    54   29   30 1
    55   29   59 1
    56   29   60 1
    57   30   35 1
    58   30   31 1
    59   30   61 1
    60   31   32 1
    61   31   62 1
    62   32   33 2
    63   32   63 1
    64   33   34 1
    65   33   64 1
    66   34   35 2
    67   34   65 1
    68   35   66 1
    69   36   37 1
    70   36   67 1
    71   36   71 1
    72   37   68 1
    73   37   69 1
    74   37   70 1
@<TRIPOS>MOLECULE
CHEMBL519256
   66    69     0     0     0
SMALL
USER_CHARGES

@<TRIPOS>ATOM
      1 C1         -0.0187    1.5258    0.0104 C.3       1 <0>        -0.1744
      2 C2          0.0021   -0.0041    0.0020 C.3       1 <0>         0.0066
      3 H1          0.5123   -0.3556   -0.8948 H         1 <0>         0.1598
      4 C3          0.7309   -0.5033    1.2229 C.2       1 <0>         0.5184
      5 O1          0.1587   -1.2128    2.0229 O.2       1 <0>        -0.4935
      6 N1          2.0187   -0.1613    1.4257 N.am      1 <0>        -0.6962
      7 C4          2.7272   -0.6466    2.6125 C.3       1 <0>         0.1468
      8 H2          2.3558   -1.6618    2.8286 H         1 <0>         0.1231
      9 C5          4.2202   -0.7426    2.3207 C.3       1 <0>        -0.1285
     10 C6          5.0466    0.0586    3.3169 C.3       1 <0>        -0.1339
     11 C7          5.4884    1.3385    2.6184 C.3       1 <0>        -0.1264
     12 C8          4.2797    2.1594    2.1870 C.3       1 <0>        -0.1253
     13 C9          3.4522    2.5596    3.3952 C.3       1 <0>         0.1493
     14 H3          4.1217    2.8196    4.2263 H         1 <0>         0.0810
     15 C10         2.6031    3.8033    3.0339 C.3       1 <0>        -0.1301
     16 C11         1.5698    3.8083    4.1845 C.3       1 <0>        -0.1281
     17 C12         1.4165    2.3214    4.5479 C.3       1 <0>         0.1112
     18 H4          1.5192    2.1912    5.6251 H         1 <0>         0.1012
     19 N2          2.4947    1.5593    3.8533 N.am      1 <0>        -0.6197
     20 C13         2.4226    0.2255    3.7829 C.2       1 <0>         0.5664
     21 O2          2.0818   -0.3528    4.8136 O.2       1 <0>        -0.5162
     22 C14         0.0628    1.8304    4.0993 C.2       1 <0>         0.5194
     23 O3         -0.0182    0.9396    3.2802 O.2       1 <0>        -0.5294
     24 N3         -1.0567    2.3814    4.6086 N.am      1 <0>        -0.7145
     25 C15        -2.3716    1.9045    4.1729 C.3       1 <0>         0.1972
     26 H5         -2.3389    1.6140    3.1228 H         1 <0>         0.0838
     27 C16        -3.4380    2.9983    4.3930 C.3       1 <0>        -0.1277
     28 C17        -3.9783    2.6563    5.7978 C.3       1 <0>        -0.0878
     29 C18        -3.7409    1.1705    5.9627 C.ar      1 <0>        -0.0868
     30 C19        -2.8163    0.7368    5.0272 C.ar      1 <0>        -0.1281
     31 C20        -2.4431   -0.5960    4.9897 C.ar      1 <0>        -0.0810
     32 C21        -2.9905   -1.4966    5.8829 C.ar      1 <0>        -0.1248
     33 C22        -3.9133   -1.0667    6.8176 C.ar      1 <0>        -0.1044
     34 C23        -4.2891    0.2682    6.8584 C.ar      1 <0>        -0.1118
     35 N4         -1.3761   -0.5125    0.0124 N.4       1 <0>        -0.4938
     36 C24        -2.0500   -0.1262   -1.2343 C.3       1 <0>        -0.0496
     37 H6          1.0039    1.9031    0.0027 H         1 <0>         0.1041
     38 H7         -0.5459    1.8868   -0.8726 H         1 <0>         0.0921
     39 H8         -0.5289    1.8773    0.9072 H         1 <0>         0.0914
     40 H9          2.4764    0.4061    0.7859 H         1 <0>         0.4019
     41 H10         4.5311   -1.7892    2.3527 H         1 <0>         0.0880
     42 H11         4.4134   -0.3587    1.3126 H         1 <0>         0.0830
     43 H12         4.4724    0.3047    4.2035 H         1 <0>         0.0730
     44 H13         5.9272   -0.5177    3.6095 H         1 <0>         0.0801
     45 H14         6.1201    1.9223    3.2803 H         1 <0>         0.0740
     46 H15         6.0612    1.0648    1.7290 H         1 <0>         0.0707
     47 H16         4.6316    3.0652    1.6788 H         1 <0>         0.0863
     48 H17         3.6785    1.5884    1.4853 H         1 <0>         0.0615
     49 H18         3.2131    4.7052    3.0570 H         1 <0>         0.0935
     50 H19         2.1160    3.6746    2.0713 H         1 <0>         0.0747
     51 H20         1.9584    4.3655    5.0366 H         1 <0>         0.0922
     52 H21         0.6234    4.2262    3.8493 H         1 <0>         0.0848
     53 H22        -0.9919    3.0939    5.2637 H         1 <0>         0.4041
     54 H23        -2.9843    3.9893    4.3831 H         1 <0>         0.0863
     55 H24        -4.2281    2.9252    3.6457 H         1 <0>         0.0885
     56 H25        -3.4321    3.2134    6.5590 H         1 <0>         0.0831
     57 H26        -5.0439    2.8780    5.8575 H         1 <0>         0.0830
     58 H27        -1.7220   -0.9327    4.2596 H         1 <0>         0.1238
     59 H28        -2.6978   -2.5357    5.8506 H         1 <0>         0.1236
     60 H29        -4.3424   -1.7695    7.5164 H         1 <0>         0.1267
     61 H30        -5.0106    0.6050    7.5881 H         1 <0>         0.1233
     62 H31        -1.3629   -1.5185    0.0898 H         1 <0>         0.4361
     63 H32        -2.0643    0.9605   -1.3179 H         1 <0>         0.1254
     64 H33        -1.5132   -0.5489   -2.0836 H         1 <0>         0.1259
     65 H34        -3.0726   -0.5034   -1.2266 H         1 <0>         0.1316
     66 H35        -1.8730   -0.1212    0.7986 H         1 <0>         0.4350
@<TRIPOS>BOND
     1    1    2 1
     2    1   37 1
     3    1   38 1
     4    1   39 1
     5    2    3 1
     6    2    4 1
     7    2   35 1
     8    4    5 2
     9    4    6 am
    10    6    7 1
    11    6   40 1
    12    7    8 1
    13    7   20 1
    14    7    9 1
    15    9   10 1
    16    9   41 1
    17    9   42 1
    18   10   11 1
    19   10   43 1
    20   10   44 1
    21   11   12 1
    22   11   45 1
    23   11   46 1
    24   12   13 1
    25   12   47 1
    26   12   48 1
    27   13   14 1
    28   13   19 1
    29   13   15 1
    30   15   16 1
    31   15   49 1
    32   15   50 1
    33   16   17 1
    34   16   51 1
    35   16   52 1
    36   17   18 1
    37   17   19 1
    38   17   22 1
    39   19   20 am
    40   20   21 2
    41   22   23 2
    42   22   24 am
    43   24   25 1
    44   24   53 1
    45   25   26 1
    46   25   30 1
    47   25   27 1
    48   27   28 1
    49   27   54 1
    50   27   55 1
    51   28   29 1
    52   28   56 1
    53   28   57 1
    54   29   34 ar
    55   29   30 ar
    56   30   31 ar
    57   31   32 ar
    58   31   58 1
    59   32   33 ar
    60   32   59 1
    61   33   34 ar
    62   33   60 1
    63   34   61 1
    64   35   36 1
    65   35   62 1
    66   35   66 1
    67   36   63 1
    68   36   64 1
    69   36   65 1
@<TRIPOS>MOLECULE
CHEMBL221313
   48    50     0     0     0
SMALL
USER_CHARGES

@<TRIPOS>ATOM
      1 C1         -0.0184    1.5028    0.0103 C.3       1 <0>        -0.1141
      2 C2          0.0021   -0.0041    0.0020 C.ar      1 <0>        -0.0877
      3 C3          0.0057   -0.6888   -1.1991 C.ar      1 <0>        -0.1283
      4 C4          0.0245   -2.0707   -1.2067 C.ar      1 <0>        -0.1135
      5 C5          0.0400   -2.7685   -0.0132 C.ar      1 <0>        -0.1214
      6 C6          0.0373   -2.0840    1.1875 C.ar      1 <0>        -0.0741
      7 C7          0.0229   -0.7015    1.1951 C.ar      1 <0>        -0.1191
      8 C8          0.0538   -2.8445    2.4885 C.3       1 <0>        -0.0766
      9 C9          1.5017   -3.0832    2.9214 C.3       1 <0>        -0.0711
     10 C10         1.5182   -3.8437    4.2223 C.ar      1 <0>        -0.0832
     11 C11         1.5098   -3.1591    5.4234 C.ar      1 <0>        -0.1267
     12 C12         1.5249   -3.8566    6.6165 C.ar      1 <0>        -0.1184
     13 C13         1.5480   -5.2390    6.6089 C.ar      1 <0>        -0.1197
     14 C14         1.5555   -5.9234    5.4082 C.ar      1 <0>        -0.0667
     15 C15         1.5361   -5.2257    4.2147 C.ar      1 <0>        -0.1112
     16 C16         1.5812   -7.4301    5.3999 C.3       1 <0>        -0.0765
     17 C17         0.1476   -7.9646    5.4020 C.3       1 <0>        -0.0463
     18 C18         0.1732   -9.4714    5.3937 C.2       1 <0>        -0.2348
     19 C19         0.0814  -10.1544    6.5544 C.2       1 <0>         0.1138
     20 C20         0.1061  -11.6402    6.5461 C.2       1 <0>         0.3867
     21 O1          0.0231  -12.2550    7.5908 O.2       1 <0>        -0.5257
     22 C21         0.2303  -12.3642    5.2776 C.2       1 <0>        -0.4719
     23 C22         0.3227  -11.6812    4.1170 C.2       1 <0>         0.2557
     24 C23         0.2918  -10.1954    4.1247 C.2       1 <0>         0.3956
     25 O2          0.3699   -9.5808    3.0795 O.2       1 <0>        -0.4359
     26 O3          0.4382  -12.3493    2.9464 O.3       1 <0>        -0.6371
     27 O4         -0.0328   -9.4863    7.7250 O.3       1 <0>        -0.4598
     28 H1          1.0042    1.8801    0.0026 H         1 <0>         0.0689
     29 H2         -0.5455    1.8639   -0.8728 H         1 <0>         0.0647
     30 H3         -0.5286    1.8543    0.9071 H         1 <0>         0.0650
     31 H4         -0.0064   -0.1437   -2.1314 H         1 <0>         0.1185
     32 H5          0.0266   -2.6056   -2.1449 H         1 <0>         0.1214
     33 H6          0.0540   -3.8484   -0.0191 H         1 <0>         0.1235
     34 H7          0.0246   -0.1666    2.1333 H         1 <0>         0.1196
     35 H8         -0.4637   -2.2663    3.2539 H         1 <0>         0.0729
     36 H9         -0.4484   -3.8028    2.3555 H         1 <0>         0.0769
     37 H10         2.0192   -3.6614    2.1559 H         1 <0>         0.0733
     38 H11         2.0039   -2.1249    3.0543 H         1 <0>         0.0705
     39 H12         1.4917   -2.0793    5.4293 H         1 <0>         0.1159
     40 H13         1.5190   -3.3218    7.5548 H         1 <0>         0.1180
     41 H14         1.5605   -5.7840    7.5412 H         1 <0>         0.1209
     42 H15         1.5381   -5.7606    3.2764 H         1 <0>         0.1230
     43 H16         2.0979   -7.7798    4.5061 H         1 <0>         0.0740
     44 H17         2.1043   -7.7895    6.2860 H         1 <0>         0.0719
     45 H18        -0.3692   -7.6150    6.2958 H         1 <0>         0.0741
     46 H19        -0.3755   -7.6053    4.5158 H         1 <0>         0.0719
     47 H20         0.2484  -13.4440    5.2716 H         1 <0>         0.1204
     48 H21        -0.0924  -10.0601    8.5011 H         1 <0>         0.4024
@<TRIPOS>BOND
     1    1    2 1
     2    1   28 1
     3    1   29 1
     4    1   30 1
     5    2    7 ar
     6    2    3 ar
     7    3    4 ar
     8    3   31 1
     9    4    5 ar
    10    4   32 1
    11    5    6 ar
    12    5   33 1
    13    6    7 ar
    14    6    8 1
    15    7   34 1
    16    8    9 1
    17    8   35 1
    18    8   36 1
    19    9   10 1
    20    9   37 1
    21    9   38 1
    22   10   15 ar
    23   10   11 ar
    24   11   12 ar
    25   11   39 1
    26   12   13 ar
    27   12   40 1
    28   13   14 ar
    29   13   41 1
    30   14   15 ar
    31   14   16 1
    32   15   42 1
    33   16   17 1
    34   16   43 1
    35   16   44 1
    36   17   18 1
    37   17   45 1
    38   17   46 1
    39   18   24 1
    40   18   19 2
    41   19   20 1
    42   19   27 1
    43   20   21 2
    44   20   22 1
    45   22   23 2
    46   22   47 1
    47   23   24 1
    48   23   26 1
    49   24   25 2
    50   27   48 1
@<TRIPOS>MOLECULE
CHEMBL221313__1
   48    50     0     0     0
SMALL
USER_CHARGES

@<TRIPOS>ATOM
      1 C1         -0.0184    1.5028    0.0103 C.3       1 <0>        -0.1138
      2 C2          0.0021   -0.0041    0.0020 C.ar      1 <0>        -0.0880
      3 C3          0.0057   -0.6888   -1.1991 C.ar      1 <0>        -0.1297
      4 C4          0.0245   -2.0707   -1.2067 C.ar      1 <0>        -0.1143
      5 C5          0.0400   -2.7685   -0.0132 C.ar      1 <0>        -0.1217
      6 C6          0.0373   -2.0840    1.1875 C.ar      1 <0>        -0.0716
      7 C7          0.0229   -0.7015    1.1951 C.ar      1 <0>        -0.1190
      8 C8          0.0538   -2.8445    2.4885 C.3       1 <0>        -0.0777
      9 C9          1.5017   -3.0832    2.9214 C.3       1 <0>        -0.0681
     10 C10         1.5182   -3.8437    4.2223 C.ar      1 <0>        -0.0878
     11 C11         1.5098   -3.1591    5.4234 C.ar      1 <0>        -0.1331
     12 C12         1.5249   -3.8566    6.6165 C.ar      1 <0>        -0.1192
     13 C13         1.5480   -5.2390    6.6089 C.ar      1 <0>        -0.1196
     14 C14         1.5555   -5.9234    5.4082 C.ar      1 <0>        -0.0585
     15 C15         1.5361   -5.2257    4.2147 C.ar      1 <0>        -0.1145
     16 C16         1.5812   -7.4301    5.3999 C.3       1 <0>        -0.0765
     17 C17         0.1476   -7.9646    5.4020 C.3       1 <0>         0.0045
     18 C18         0.1732   -9.4714    5.3937 C.2       1 <0>        -0.4397
     19 C19         0.0814  -10.1544    6.5544 C.2       1 <0>         0.2578
     20 C20         0.1061  -11.6402    6.5461 C.2       1 <0>         0.3895
     21 O1          0.0231  -12.2550    7.5908 O.2       1 <0>        -0.4481
     22 C21         0.2303  -12.3642    5.2776 C.2       1 <0>        -0.3318
     23 C22         0.3227  -11.6812    4.1170 C.2       1 <0>         0.1326
     24 C23         0.2918  -10.1954    4.1247 C.2       1 <0>         0.4257
     25 O2          0.3699   -9.5808    3.0795 O.2       1 <0>        -0.4950
     26 O3          0.4382  -12.3493    2.9464 O.3       1 <0>        -0.4553
     27 O4         -0.0328   -9.4863    7.7250 O.3       1 <0>        -0.6284
     28 H1          1.0042    1.8801    0.0026 H         1 <0>         0.0686
     29 H2         -0.5455    1.8639   -0.8728 H         1 <0>         0.0641
     30 H3         -0.5286    1.8543    0.9071 H         1 <0>         0.0651
     31 H4         -0.0064   -0.1437   -2.1314 H         1 <0>         0.1177
     32 H5          0.0266   -2.6056   -2.1449 H         1 <0>         0.1205
     33 H6          0.0540   -3.8484   -0.0191 H         1 <0>         0.1233
     34 H7          0.0246   -0.1666    2.1333 H         1 <0>         0.1199
     35 H8         -0.4637   -2.2663    3.2539 H         1 <0>         0.0732
     36 H9         -0.4484   -3.8028    2.3555 H         1 <0>         0.0774
     37 H10         2.0192   -3.6614    2.1559 H         1 <0>         0.0712
     38 H11         2.0039   -2.1249    3.0543 H         1 <0>         0.0684
     39 H12         1.4917   -2.0793    5.4293 H         1 <0>         0.1128
     40 H13         1.5190   -3.3218    7.5548 H         1 <0>         0.1157
     41 H14         1.5605   -5.7840    7.5412 H         1 <0>         0.1222
     42 H15         1.5381   -5.7606    3.2764 H         1 <0>         0.1200
     43 H16         2.0979   -7.7798    4.5061 H         1 <0>         0.0629
     44 H17         2.1043   -7.7895    6.2860 H         1 <0>         0.0671
     45 H18        -0.3692   -7.6150    6.2958 H         1 <0>         0.0626
     46 H19        -0.3755   -7.6053    4.5158 H         1 <0>         0.0441
     47 H20         0.2484  -13.4440    5.2716 H         1 <0>         0.1326
     48 H21         0.4456  -13.3115    3.0418 H         1 <0>         0.3921
@<TRIPOS>BOND
     1    1    2 1
     2    1   28 1
     3    1   29 1
     4    1   30 1
     5    2    7 ar
     6    2    3 ar
     7    3    4 ar
     8    3   31 1
     9    4    5 ar
    10    4   32 1
    11    5    6 ar
    12    5   33 1
    13    6    7 ar
    14    6    8 1
    15    7   34 1
    16    8    9 1
    17    8   35 1
    18    8   36 1
    19    9   10 1
    20    9   37 1
    21    9   38 1
    22   10   15 ar
    23   10   11 ar
    24   11   12 ar
    25   11   39 1
    26   12   13 ar
    27   12   40 1
    28   13   14 ar
    29   13   41 1
    30   14   15 ar
    31   14   16 1
    32   15   42 1
    33   16   17 1
    34   16   43 1
    35   16   44 1
    36   17   18 1
    37   17   45 1
    38   17   46 1
    39   18   24 1
    40   18   19 2
    41   19   20 1
    42   19   27 1
    43   20   21 2
    44   20   22 1
    45   22   23 2
    46   22   47 1
    47   23   24 1
    48   23   26 1
    49   24   25 2
    50   26   48 1
@<TRIPOS>MOLECULE
CHEMBL373766
   63    63     0     0     0
SMALL
USER_CHARGES

@<TRIPOS>ATOM
      1 C1          2.5251    1.1582   -0.4713 C.3       1 <0>        -0.1478
      2 C2          2.3480   -0.3587   -0.3796 C.3       1 <0>        -0.1177
      3 C3          2.6795   -0.8260    1.0391 C.3       1 <0>        -0.0834
      4 H1          3.6803   -0.4882    1.3083 H         1 <0>         0.0697
      5 C4          1.6622   -0.2397    2.0200 C.3       1 <0>        -0.1419
      6 C5          2.6237   -2.3538    1.0989 C.3       1 <0>         0.0833
      7 H2          1.6229   -2.6916    0.8297 H         1 <0>         0.0777
      8 C6          3.6257   -2.9314    0.1328 C.2       1 <0>         0.4951
      9 O1          4.7648   -3.1621    0.5012 O.co2     1 <0>        -0.6940
     10 O2          3.2973   -3.1679   -1.0173 O.co2     1 <0>        -0.6906
     11 N1          2.9411   -2.8013    2.4573 N.am      1 <0>        -0.6898
     12 C7          2.4869   -3.9911    2.8983 C.2       1 <0>         0.5044
     13 O3          1.8154   -4.6914    2.1706 O.2       1 <0>        -0.5340
     14 C8          2.8135   -4.4514    4.2957 C.3       1 <0>         0.1207
     15 H3          2.4315   -3.7331    5.0211 H         1 <0>         0.0964
     16 C9          4.3414   -4.5977    4.4565 C.3       1 <0>        -0.1274
     17 C10         4.4781   -5.8690    5.3352 C.3       1 <0>        -0.1299
     18 C11         3.3042   -6.7351    4.8141 C.3       1 <0>         0.0976
     19 N2          2.2172   -5.7730    4.5389 N.am      1 <0>        -0.5952
     20 C12         0.8999   -6.0570    4.5145 C.2       1 <0>         0.5439
     21 O4          0.0898   -5.1650    4.3774 O.2       1 <0>        -0.5271
     22 C13         0.4337   -7.4829    4.6576 C.3       1 <0>        -0.0909
     23 H4          1.0487   -7.9936    5.3986 H         1 <0>         0.1024
     24 C14        -1.0279   -7.4987    5.1097 C.3       1 <0>        -0.1533
     25 C15        -1.3697   -8.8604    5.6573 C.2       1 <0>         0.3477
     26 O5         -0.5004   -9.6839    5.8139 O.2       1 <0>        -0.4194
     27 C16        -2.7963   -9.1945    6.0096 C.3       1 <0>        -0.0227
     28 H5         -3.4568   -8.8541    5.2121 H         1 <0>         0.1715
     29 C17        -3.1752   -8.4976    7.3180 C.3       1 <0>        -0.1789
     30 N3         -2.9331  -10.6481    6.1716 N.4       1 <0>        -0.6286
     31 C18         0.5588   -8.1980    3.3108 C.3       1 <0>        -0.0872
     32 C19         0.2268   -9.6810    3.4880 C.3       1 <0>        -0.1386
     33 C20        -0.4150   -7.5735    2.3095 C.3       1 <0>        -0.1557
     34 H6          3.5568    1.4185   -0.2348 H         1 <0>         0.0505
     35 H7          2.2889    1.4911   -1.4820 H         1 <0>         0.0502
     36 H8          1.8558    1.6457    0.2375 H         1 <0>         0.0492
     37 H9          1.3163   -0.6190   -0.6161 H         1 <0>         0.0572
     38 H10         3.0173   -0.8462   -1.0884 H         1 <0>         0.0828
     39 H11         0.6615   -0.5775    1.7508 H         1 <0>         0.0499
     40 H12         1.8984   -0.5726    3.0307 H         1 <0>         0.0471
     41 H13         1.7020    0.8488    1.9774 H         1 <0>         0.0536
     42 H14         3.4782   -2.2412    3.0394 H         1 <0>         0.3904
     43 H15         4.8187   -4.7453    3.4877 H         1 <0>         0.0953
     44 H16         4.7604   -3.7299    4.9658 H         1 <0>         0.0928
     45 H17         5.4345   -6.3625    5.1623 H         1 <0>         0.0906
     46 H18         4.3488   -5.6301    6.3908 H         1 <0>         0.0780
     47 H19         3.5927   -7.2549    3.9004 H         1 <0>         0.0743
     48 H20         2.9927   -7.4498    5.5759 H         1 <0>         0.0762
     49 H21        -1.1764   -6.7474    5.8853 H         1 <0>         0.1217
     50 H22        -1.6734   -7.2763    4.2600 H         1 <0>         0.1275
     51 H23        -3.0737   -7.4191    7.1977 H         1 <0>         0.1175
     52 H24        -4.2070   -8.7393    7.5728 H         1 <0>         0.0972
     53 H25        -2.5147   -8.8381    8.1154 H         1 <0>         0.0873
     54 H26        -2.3217  -10.9633    6.9099 H         1 <0>         0.4385
     55 H27        -3.8883  -10.8718    6.4075 H         1 <0>         0.4404
     56 H28         1.5781   -8.0958    2.9384 H         1 <0>         0.0879
     57 H29        -0.8277   -9.7895    3.7419 H         1 <0>         0.0296
     58 H30         0.4335  -10.2131    2.5594 H         1 <0>         0.0593
     59 H31         0.8380  -10.0970    4.2889 H         1 <0>         0.0719
     60 H32        -0.2462   -6.4977    2.2611 H         1 <0>         0.0810
     61 H33        -0.2537   -8.0112    1.3244 H         1 <0>         0.0613
     62 H34        -1.4389   -7.7666    2.6296 H         1 <0>         0.0448
     63 H35        -2.6833  -11.1077    5.3088 H         1 <0>         0.4393
@<TRIPOS>BOND
     1    1    2 1
     2    1   34 1
     3    1   35 1
     4    1   36 1
     5    2    3 1
     6    2   37 1
     7    2   38 1
     8    3    4 1
     9    3    5 1
    10    3    6 1
    11    5   39 1
    12    5   40 1
    13    5   41 1
    14    6    7 1
    15    6    8 1
    16    6   11 1
    17    8    9 2
    18    8   10 1
    19   11   12 am
    20   11   42 1
    21   12   13 2
    22   12   14 1
    23   14   15 1
    24   14   19 1
    25   14   16 1
    26   16   17 1
    27   16   43 1
    28   16   44 1
    29   17   18 1
    30   17   45 1
    31   17   46 1
    32   18   19 1
    33   18   47 1
    34   18   48 1
    35   19   20 am
    36   20   21 2
    37   20   22 1
    38   22   23 1
    39   22   24 1
    40   22   31 1
    41   24   25 1
    42   24   49 1
    43   24   50 1
    44   25   26 2
    45   25   27 1
    46   27   28 1
    47   27   29 1
    48   27   30 1
    49   29   51 1
    50   29   52 1
    51   29   53 1
    52   30   54 1
    53   30   55 1
    54   30   63 1
    55   31   32 1
    56   31   33 1
    57   31   56 1
    58   32   57 1
    59   32   58 1
    60   32   59 1
    61   33   60 1
    62   33   61 1
    63   33   62 1
@<TRIPOS>MOLECULE
CHEMBL373766__1
   62    62     0     0     0
SMALL
USER_CHARGES

@<TRIPOS>ATOM
      1 C1          2.5240    1.1575   -0.4733 C.3       1 <0>        -0.1465
      2 C2          2.3471   -0.3594   -0.3812 C.3       1 <0>        -0.1269
      3 C3          2.6787   -0.8264    1.0376 C.3       1 <0>        -0.0794
      4 H1          3.6794   -0.4884    1.3067 H         1 <0>         0.0641
      5 C4          1.6613   -0.2399    2.0184 C.3       1 <0>        -0.1426
      6 C5          2.6230   -2.3542    1.0977 C.3       1 <0>         0.0824
      7 H2          1.6223   -2.6922    0.8286 H         1 <0>         0.0781
      8 C6          3.6251   -2.9318    0.1317 C.2       1 <0>         0.4940
      9 O1          4.6211   -3.4961    0.5512 O.co2     1 <0>        -0.6904
     10 O2          3.4397   -2.8349   -1.0695 O.co2     1 <0>        -0.6920
     11 N1          2.9405   -2.8013    2.4562 N.am      1 <0>        -0.6932
     12 C7          2.4865   -3.9911    2.8974 C.2       1 <0>         0.5086
     13 O3          1.8150   -4.6916    2.1699 O.2       1 <0>        -0.5297
     14 C8          2.8131   -4.4510    4.2949 C.3       1 <0>         0.1214
     15 H3          2.4310   -3.7327    5.0202 H         1 <0>         0.0923
     16 C9          4.3410   -4.5971    4.4557 C.3       1 <0>        -0.1257
     17 C10         4.4779   -5.8683    5.3347 C.3       1 <0>        -0.1293
     18 C11         3.3041   -6.7346    4.8137 C.3       1 <0>         0.0985
     19 N2          2.2170   -5.7727    4.5384 N.am      1 <0>        -0.5991
     20 C12         0.8997   -6.0568    4.5141 C.2       1 <0>         0.5467
     21 O4          0.0894   -5.1649    4.3768 O.2       1 <0>        -0.5296
     22 C13         0.4337   -7.4828    4.6575 C.3       1 <0>        -0.0880
     23 H4          1.0487   -7.9933    5.3985 H         1 <0>         0.0979
     24 C14        -1.0279   -7.4986    5.1096 C.3       1 <0>        -0.1568
     25 C15        -1.3696   -8.8603    5.6575 C.2       1 <0>         0.3610
     26 O5         -0.5001   -9.6836    5.8141 O.2       1 <0>        -0.4327
     27 C16        -2.7962   -9.1945    6.0099 C.3       1 <0>         0.0394
     28 H5         -3.4567   -8.8542    5.2124 H         1 <0>         0.1083
     29 C17        -3.1750   -8.4974    7.3181 C.3       1 <0>        -0.1823
     30 N3         -2.9328  -10.6481    6.1722 N.3       1 <0>        -0.8341
     31 C18         0.5587   -8.1981    3.3108 C.3       1 <0>        -0.0805
     32 C19         0.2269   -9.6811    3.4883 C.3       1 <0>        -0.1406
     33 C20        -0.4152   -7.5739    2.3094 C.3       1 <0>        -0.1533
     34 H6          3.5557    1.4180   -0.2368 H         1 <0>         0.0475
     35 H7          2.2878    1.4902   -1.4840 H         1 <0>         0.0476
     36 H8          1.8546    1.6451    0.2355 H         1 <0>         0.0458
     37 H9          1.3154   -0.6199   -0.6176 H         1 <0>         0.0536
     38 H10         3.0164   -0.8470   -1.0899 H         1 <0>         0.1020
     39 H11         0.6606   -0.5779    1.7492 H         1 <0>         0.0503
     40 H12         1.8976   -0.5726    3.0291 H         1 <0>         0.0473
     41 H13         1.7010    0.8485    1.9755 H         1 <0>         0.0511
     42 H14         3.4775   -2.2410    3.0381 H         1 <0>         0.3873
     43 H15         4.8183   -4.7449    3.4870 H         1 <0>         0.0959
     44 H16         4.7599   -3.7292    4.9649 H         1 <0>         0.0877
     45 H17         5.4343   -6.3617    5.1618 H         1 <0>         0.0875
     46 H18         4.3486   -5.6292    6.3903 H         1 <0>         0.0760
     47 H19         3.5926   -7.2545    3.9002 H         1 <0>         0.0729
     48 H20         2.9926   -7.4491    5.5757 H         1 <0>         0.0780
     49 H21        -1.1765   -6.7472    5.8851 H         1 <0>         0.1025
     50 H22        -1.6735   -7.2764    4.2599 H         1 <0>         0.1122
     51 H23        -2.5145   -8.8377    8.1157 H         1 <0>         0.0588
     52 H24        -3.0736   -7.4189    7.1977 H         1 <0>         0.0715
     53 H25        -4.2069   -8.7392    7.5730 H         1 <0>         0.0669
     54 H26        -2.2840  -10.9976    6.8614 H         1 <0>         0.3481
     55 H27        -3.8813  -10.8979    6.4090 H         1 <0>         0.3452
     56 H28         1.5780   -8.0958    2.9383 H         1 <0>         0.0769
     57 H29        -0.8275   -9.7896    3.7422 H         1 <0>         0.0527
     58 H30         0.4336  -10.2133    2.5598 H         1 <0>         0.0475
     59 H31         0.8382  -10.0968    4.2892 H         1 <0>         0.0689
     60 H32        -0.2465   -6.4981    2.2608 H         1 <0>         0.0738
     61 H33        -0.2539   -8.0118    1.3244 H         1 <0>         0.0548
     62 H34        -1.4391   -7.7670    2.6296 H         1 <0>         0.0502
@<TRIPOS>BOND
     1    1    2 1
     2    1   34 1
     3    1   35 1
     4    1   36 1
     5    2    3 1
     6    2   37 1
     7    2   38 1
     8    3    4 1
     9    3    5 1
    10    3    6 1
    11    5   39 1
    12    5   40 1
    13    5   41 1
    14    6    7 1
    15    6    8 1
    16    6   11 1
    17    8    9 2
    18    8   10 1
    19   11   12 am
    20   11   42 1
    21   12   13 2
    22   12   14 1
    23   14   15 1
    24   14   19 1
    25   14   16 1
    26   16   17 1
    27   16   43 1
    28   16   44 1
    29   17   18 1
    30   17   45 1
    31   17   46 1
    32   18   19 1
    33   18   47 1
    34   18   48 1
    35   19   20 am
    36   20   21 2
    37   20   22 1
    38   22   23 1
    39   22   24 1
    40   22   31 1
    41   24   25 1
    42   24   49 1
    43   24   50 1
    44   25   26 2
    45   25   27 1
    46   27   28 1
    47   27   29 1
    48   27   30 1
    49   29   51 1
    50   29   52 1
    51   29   53 1
    52   30   54 1
    53   30   55 1
    54   31   32 1
    55   31   33 1
    56   31   56 1
    57   32   57 1
    58   32   58 1
    59   32   59 1
    60   33   60 1
    61   33   61 1
    62   33   62 1
@<TRIPOS>MOLECULE
CHEMBL572850
   73    76     0     0     0
SMALL
USER_CHARGES

@<TRIPOS>ATOM
      1 C1         -0.0187    1.5258    0.0104 C.3       1 <0>        -0.1705
      2 C2          0.0021   -0.0041    0.0020 C.3       1 <0>        -0.1424
      3 C3         -1.4333   -0.5336    0.0129 C.3       1 <0>         0.0102
      4 H1         -1.9862   -0.1019   -0.8214 H         1 <0>         0.1655
      5 C4         -1.4159   -2.0348   -0.1192 C.2       1 <0>         0.5035
      6 O1         -1.5501   -2.7316    0.8643 O.2       1 <0>        -0.4956
      7 N1         -1.2512   -2.6028   -1.3302 N.am      1 <0>        -0.6905
      8 C5         -1.2344   -4.0592   -1.4584 C.3       1 <0>         0.1512
      9 H2         -1.9415   -4.4722   -0.7218 H         1 <0>         0.1335
     10 C6         -1.6918   -4.4868   -2.8490 C.3       1 <0>        -0.0990
     11 H3         -1.3116   -5.4883   -3.0665 H         1 <0>         0.1108
     12 C7         -1.2059   -3.5091   -3.9135 C.3       1 <0>        -0.1295
     13 C8          0.3115   -3.3677   -3.8835 C.3       1 <0>        -0.1367
     14 C9          0.9536   -4.7013   -3.5066 C.3       1 <0>         0.1271
     15 H4          0.3468   -5.5249   -3.8879 H         1 <0>         0.0898
     16 C10         2.3644   -4.7755   -4.1157 C.3       1 <0>        -0.1271
     17 C11         3.1981   -5.5021   -3.0430 C.3       1 <0>        -0.1269
     18 C12         2.4736   -5.1897   -1.7234 C.3       1 <0>         0.1177
     19 H5          2.4728   -6.0728   -1.0808 H         1 <0>         0.1107
     20 N2          1.0888   -4.8071   -2.0515 N.am      1 <0>        -0.5802
     21 C13         0.1305   -4.5892   -1.1350 C.2       1 <0>         0.5247
     22 O2          0.3843   -4.8447    0.0273 O.2       1 <0>        -0.5107
     23 C14         3.1740   -4.0517   -1.0202 C.2       1 <0>         0.5204
     24 O3          2.5812   -3.0160   -0.8035 O.2       1 <0>        -0.5283
     25 N3          4.4579   -4.1869   -0.6333 N.am      1 <0>        -0.7200
     26 C15         5.1375   -3.0828    0.0490 C.3       1 <0>         0.2368
     27 C16         6.2597   -3.6289    0.8936 C.ar      1 <0>        -0.0951
     28 C17         7.0508   -4.6553    0.4122 C.ar      1 <0>        -0.1117
     29 C18         8.0802   -5.1562    1.1869 C.ar      1 <0>        -0.1123
     30 C19         8.3189   -4.6305    2.4429 C.ar      1 <0>        -0.1120
     31 C20         7.5284   -3.6036    2.9240 C.ar      1 <0>        -0.1129
     32 C21         6.5017   -3.0997    2.1475 C.ar      1 <0>        -0.1044
     33 C22         5.6974   -2.1286   -0.9742 C.ar      1 <0>        -0.0890
     34 C23         6.2767   -2.6168   -2.1305 C.ar      1 <0>        -0.1033
     35 C24         6.7903   -1.7414   -3.0690 C.ar      1 <0>        -0.1173
     36 C25         6.7241   -0.3779   -2.8516 C.ar      1 <0>        -0.1161
     37 C26         6.1440    0.1103   -1.6957 C.ar      1 <0>        -0.1175
     38 C27         5.6266   -0.7649   -0.7591 C.ar      1 <0>        -0.1040
     39 C28        -3.2266   -4.5365   -2.8781 C.3       1 <0>        -0.0204
     40 C29        -3.6759   -5.0628   -4.1773 C.1       1 <0>         0.1908
     41 N4         -4.0227   -5.4690   -5.1799 N.1       1 <0>        -0.4082
     42 N5         -2.0833   -0.1607    1.2764 N.4       1 <0>        -0.6215
     43 H6          1.0039    1.9031    0.0027 H         1 <0>         0.0889
     44 H7         -0.5459    1.8868   -0.8726 H         1 <0>         0.0752
     45 H8         -0.5289    1.8773    0.9072 H         1 <0>         0.0550
     46 H9          0.5123   -0.3556   -0.8948 H         1 <0>         0.1183
     47 H10         0.5293   -0.3651    0.8851 H         1 <0>         0.0988
     48 H11        -1.1439   -2.0455   -2.1168 H         1 <0>         0.4125
     49 H12        -1.5046   -3.8835   -4.9012 H         1 <0>         0.0839
     50 H13        -1.6718   -2.5339   -3.7701 H         1 <0>         0.0747
     51 H14         0.6658   -3.0677   -4.8738 H         1 <0>         0.0895
     52 H15         0.6036   -2.6055   -3.1628 H         1 <0>         0.0756
     53 H16         2.3519   -5.3518   -5.0397 H         1 <0>         0.0948
     54 H17         2.7583   -3.7764   -4.2932 H         1 <0>         0.0821
     55 H18         3.2075   -6.5741   -3.2300 H         1 <0>         0.0949
     56 H19         4.2141   -5.1078   -3.0239 H         1 <0>         0.0897
     57 H20         4.9321   -5.0152   -0.8065 H         1 <0>         0.4018
     58 H21         4.4264   -2.5566    0.6858 H         1 <0>         0.1003
     59 H22         6.8643   -5.0660   -0.5691 H         1 <0>         0.1180
     60 H23         8.6978   -5.9585    0.8110 H         1 <0>         0.1269
     61 H24         9.1227   -5.0224    3.0485 H         1 <0>         0.1266
     62 H25         7.7147   -3.1931    3.9054 H         1 <0>         0.1267
     63 H26         5.8865   -2.2949    2.5219 H         1 <0>         0.1217
     64 H27         6.3284   -3.6821   -2.3004 H         1 <0>         0.1154
     65 H28         7.2435   -2.1229   -3.9721 H         1 <0>         0.1233
     66 H29         7.1260    0.3059   -3.5846 H         1 <0>         0.1232
     67 H30         6.0926    1.1756   -1.5257 H         1 <0>         0.1225
     68 H31         5.1700   -0.3833    0.1422 H         1 <0>         0.1178
     69 H32        -3.5843   -5.1863   -2.0794 H         1 <0>         0.1177
     70 H33        -3.6254   -3.5321   -2.7354 H         1 <0>         0.1100
     71 H34        -2.0949    0.8443    1.3648 H         1 <0>         0.4409
     72 H35        -3.0299   -0.5100    1.2835 H         1 <0>         0.4403
     73 H36        -1.5715   -0.5604    2.0487 H         1 <0>         0.4433
@<TRIPOS>BOND
     1    1    2 1
     2    1   43 1
     3    1   44 1
     4    1   45 1
     5    2    3 1
     6    2   46 1
     7    2   47 1
     8    3    4 1
     9    3    5 1
    10    3   42 1
    11    5    6 2
    12    5    7 am
    13    7    8 1
    14    7   48 1
    15    8    9 1
    16    8   21 1
    17    8   10 1
    18   10   11 1
    19   10   12 1
    20   10   39 1
    21   12   13 1
    22   12   49 1
    23   12   50 1
    24   13   14 1
    25   13   51 1
    26   13   52 1
    27   14   15 1
    28   14   20 1
    29   14   16 1
    30   16   17 1
    31   16   53 1
    32   16   54 1
    33   17   18 1
    34   17   55 1
    35   17   56 1
    36   18   19 1
    37   18   20 1
    38   18   23 1
    39   20   21 am
    40   21   22 2
    41   23   24 2
    42   23   25 am
    43   25   26 1
    44   25   57 1
    45   26   27 1
    46   26   33 1
    47   26   58 1
    48   27   32 ar
    49   27   28 ar
    50   28   29 ar
    51   28   59 1
    52   29   30 ar
    53   29   60 1
    54   30   31 ar
    55   30   61 1
    56   31   32 ar
    57   31   62 1
    58   32   63 1
    59   33   38 ar
    60   33   34 ar
    61   34   35 ar
    62   34   64 1
    63   35   36 ar
    64   35   65 1
    65   36   37 ar
    66   36   66 1
    67   37   38 ar
    68   37   67 1
    69   38   68 1
    70   39   40 1
    71   39   69 1
    72   39   70 1
    73   40   41 3
    74   42   71 1
    75   42   72 1
    76   42   73 1
@<TRIPOS>MOLECULE
CHEMBL221256
   45    47     0     0     0
SMALL
USER_CHARGES

@<TRIPOS>ATOM
      1 C1         -0.0167    1.3781    0.0096 C.ar      1 <0>        -0.1281
      2 C2          1.1709    2.0855    0.0021 C.ar      1 <0>        -0.1178
      3 C3          2.3773    1.4107   -0.0130 C.ar      1 <0>        -0.1160
      4 C4          2.3960    0.0285   -0.0201 C.ar      1 <0>        -0.0783
      5 C5          1.2084   -0.6789   -0.0117 C.ar      1 <0>        -0.1189
      6 C6          0.0021   -0.0041    0.0020 C.ar      1 <0>        -0.1207
      7 C7          3.7112   -0.7071   -0.0376 C.3       1 <0>        -0.0770
      8 C8          4.1714   -0.9633    1.3989 C.3       1 <0>        -0.0713
      9 C9          5.4865   -1.6989    1.3815 C.ar      1 <0>        -0.0834
     10 C10         5.5052   -3.0813    1.3687 C.ar      1 <0>        -0.1267
     11 C11         6.7113   -3.7560    1.3526 C.ar      1 <0>        -0.1183
     12 C12         7.8992   -3.0485    1.3490 C.ar      1 <0>        -0.1197
     13 C13         7.8805   -1.6666    1.3609 C.ar      1 <0>        -0.0667
     14 C14         6.6739   -0.9916    1.3725 C.ar      1 <0>        -0.1112
     15 C15         9.1752   -0.8954    1.3573 C.3       1 <0>        -0.0766
     16 C16         9.6022   -0.6222   -0.0863 C.3       1 <0>        -0.0463
     17 C17        10.8969    0.1489   -0.0898 C.2       1 <0>        -0.2348
     18 C18        12.0715   -0.5048   -0.2120 C.2       1 <0>         0.1138
     19 C19        13.3483    0.2556   -0.2160 C.2       1 <0>         0.3867
     20 O1         14.4055   -0.3328   -0.3264 O.2       1 <0>        -0.5256
     21 C20        13.3321    1.7158   -0.0872 C.2       1 <0>        -0.4719
     22 C21        12.1575    2.3695    0.0354 C.2       1 <0>         0.2557
     23 C22        10.8804    1.6095    0.0334 C.2       1 <0>         0.3957
     24 O2          9.8229    2.1984    0.1388 O.2       1 <0>        -0.4359
     25 O3         12.1427    3.7168    0.1552 O.3       1 <0>        -0.6370
     26 O4         12.0865   -1.8523   -0.3304 O.3       1 <0>        -0.4599
     27 H1         -0.9591    1.9053    0.0259 H         1 <0>         0.1189
     28 H2          1.1563    3.1654    0.0076 H         1 <0>         0.1213
     29 H3          3.3051    1.9634   -0.0196 H         1 <0>         0.1239
     30 H4          1.2231   -1.7588   -0.0176 H         1 <0>         0.1200
     31 H5         -0.9258   -0.5567    0.0082 H         1 <0>         0.1194
     32 H6          3.5884   -1.6586   -0.5549 H         1 <0>         0.0732
     33 H7          4.4573   -0.1052   -0.5563 H         1 <0>         0.0769
     34 H8          4.2941   -0.0118    1.9163 H         1 <0>         0.0733
     35 H9          3.4252   -1.5652    1.9176 H         1 <0>         0.0707
     36 H10         4.5773   -3.6339    1.3715 H         1 <0>         0.1160
     37 H11         6.7259   -4.8359    1.3434 H         1 <0>         0.1180
     38 H12         8.8417   -3.5757    1.3372 H         1 <0>         0.1209
     39 H13         6.6593    0.0883    1.3780 H         1 <0>         0.1230
     40 H14         9.0360    0.0507    1.8803 H         1 <0>         0.0741
     41 H15         9.9468   -1.4785    1.8602 H         1 <0>         0.0719
     42 H16         9.7414   -1.5684   -0.6092 H         1 <0>         0.0741
     43 H17         8.8307   -0.0392   -0.5892 H         1 <0>         0.0719
     44 H18        14.2600    2.2684   -0.0901 H         1 <0>         0.1204
     45 H19        12.9728   -2.2301   -0.4125 H         1 <0>         0.4024
@<TRIPOS>BOND
     1    1    6 ar
     2    1    2 ar
     3    1   27 1
     4    2    3 ar
     5    2   28 1
     6    3    4 ar
     7    3   29 1
     8    4    5 ar
     9    4    7 1
    10    5    6 ar
    11    5   30 1
    12    6   31 1
    13    7    8 1
    14    7   32 1
    15    7   33 1
    16    8    9 1
    17    8   34 1
    18    8   35 1
    19    9   14 ar
    20    9   10 ar
    21   10   11 ar
    22   10   36 1
    23   11   12 ar
    24   11   37 1
    25   12   13 ar
    26   12   38 1
    27   13   14 ar
    28   13   15 1
    29   14   39 1
    30   15   16 1
    31   15   40 1
    32   15   41 1
    33   16   17 1
    34   16   42 1
    35   16   43 1
    36   17   23 1
    37   17   18 2
    38   18   19 1
    39   18   26 1
    40   19   20 2
    41   19   21 1
    42   21   22 2
    43   21   44 1
    44   22   23 1
    45   22   25 1
    46   23   24 2
    47   26   45 1
@<TRIPOS>MOLECULE
CHEMBL221256__1
   45    47     0     0     0
SMALL
USER_CHARGES

@<TRIPOS>ATOM
      1 C1         -0.0167    1.3781    0.0096 C.ar      1 <0>        -0.1296
      2 C2          1.1709    2.0855    0.0021 C.ar      1 <0>        -0.1186
      3 C3          2.3773    1.4107   -0.0130 C.ar      1 <0>        -0.1164
      4 C4          2.3960    0.0285   -0.0201 C.ar      1 <0>        -0.0759
      5 C5          1.2084   -0.6789   -0.0117 C.ar      1 <0>        -0.1190
      6 C6          0.0021   -0.0041    0.0020 C.ar      1 <0>        -0.1208
      7 C7          3.7112   -0.7071   -0.0376 C.3       1 <0>        -0.0781
      8 C8          4.1714   -0.9633    1.3989 C.3       1 <0>        -0.0683
      9 C9          5.4865   -1.6989    1.3815 C.ar      1 <0>        -0.0880
     10 C10         5.5052   -3.0813    1.3687 C.ar      1 <0>        -0.1331
     11 C11         6.7113   -3.7560    1.3526 C.ar      1 <0>        -0.1191
     12 C12         7.8992   -3.0485    1.3490 C.ar      1 <0>        -0.1195
     13 C13         7.8805   -1.6666    1.3609 C.ar      1 <0>        -0.0585
     14 C14         6.6739   -0.9916    1.3725 C.ar      1 <0>        -0.1146
     15 C15         9.1752   -0.8954    1.3573 C.3       1 <0>        -0.0765
     16 C16         9.6022   -0.6222   -0.0863 C.3       1 <0>         0.0045
     17 C17        10.8969    0.1489   -0.0898 C.2       1 <0>        -0.4397
     18 C18        12.0715   -0.5048   -0.2120 C.2       1 <0>         0.2577
     19 C19        13.3483    0.2556   -0.2160 C.2       1 <0>         0.3896
     20 O1         14.4055   -0.3328   -0.3264 O.2       1 <0>        -0.4480
     21 C20        13.3321    1.7158   -0.0872 C.2       1 <0>        -0.3318
     22 C21        12.1575    2.3695    0.0354 C.2       1 <0>         0.1325
     23 C22        10.8804    1.6095    0.0334 C.2       1 <0>         0.4257
     24 O2          9.8229    2.1984    0.1388 O.2       1 <0>        -0.4950
     25 O3         12.1427    3.7168    0.1552 O.3       1 <0>        -0.4553
     26 O4         12.0865   -1.8523   -0.3304 O.3       1 <0>        -0.6284
     27 H1         -0.9591    1.9053    0.0259 H         1 <0>         0.1181
     28 H2          1.1563    3.1654    0.0076 H         1 <0>         0.1204
     29 H3          3.3051    1.9634   -0.0196 H         1 <0>         0.1238
     30 H4          1.2231   -1.7588   -0.0176 H         1 <0>         0.1203
     31 H5         -0.9258   -0.5567    0.0082 H         1 <0>         0.1189
     32 H6          3.5884   -1.6586   -0.5549 H         1 <0>         0.0734
     33 H7          4.4573   -0.1052   -0.5563 H         1 <0>         0.0774
     34 H8          4.2941   -0.0118    1.9163 H         1 <0>         0.0712
     35 H9          3.4252   -1.5652    1.9176 H         1 <0>         0.0685
     36 H10         4.5773   -3.6339    1.3715 H         1 <0>         0.1129
     37 H11         6.7259   -4.8359    1.3434 H         1 <0>         0.1157
     38 H12         8.8417   -3.5757    1.3372 H         1 <0>         0.1222
     39 H13         6.6593    0.0883    1.3780 H         1 <0>         0.1200
     40 H14         9.0360    0.0507    1.8803 H         1 <0>         0.0629
     41 H15         9.9468   -1.4785    1.8602 H         1 <0>         0.0671
     42 H16         9.7414   -1.5684   -0.6092 H         1 <0>         0.0626
     43 H17         8.8307   -0.0392   -0.5892 H         1 <0>         0.0440
     44 H18        14.2600    2.2684   -0.0901 H         1 <0>         0.1326
     45 H19        13.0203    4.1225    0.1425 H         1 <0>         0.3921
@<TRIPOS>BOND
     1    1    6 ar
     2    1    2 ar
     3    1   27 1
     4    2    3 ar
     5    2   28 1
     6    3    4 ar
     7    3   29 1
     8    4    5 ar
     9    4    7 1
    10    5    6 ar
    11    5   30 1
    12    6   31 1
    13    7    8 1
    14    7   32 1
    15    7   33 1
    16    8    9 1
    17    8   34 1
    18    8   35 1
    19    9   14 ar
    20    9   10 ar
    21   10   11 ar
    22   10   36 1
    23   11   12 ar
    24   11   37 1
    25   12   13 ar
    26   12   38 1
    27   13   14 ar
    28   13   15 1
    29   14   39 1
    30   15   16 1
    31   15   40 1
    32   15   41 1
    33   16   17 1
    34   16   42 1
    35   16   43 1
    36   17   23 1
    37   17   18 2
    38   18   19 1
    39   18   26 1
    40   19   20 2
    41   19   21 1
    42   21   22 2
    43   21   44 1
    44   22   23 1
    45   22   25 1
    46   23   24 2
    47   25   45 1
@<TRIPOS>MOLECULE
CHEMBL186839
   83    84     0     0     0
SMALL
USER_CHARGES

@<TRIPOS>ATOM
      1 C1         -1.9939    1.1082   -2.5981 C.3       1 <0>        -0.1838
      2 C2         -1.3802   -0.1831   -2.0534 C.3       1 <0>         0.0086
      3 H1         -0.4351    0.0437   -1.5600 H         1 <0>         0.1700
      4 C3         -2.3266   -0.8099   -1.0621 C.2       1 <0>         0.5039
      5 O1         -2.7601   -1.9253   -1.2593 O.2       1 <0>        -0.5239
      6 N1         -2.6911   -0.1309    0.0436 N.am      1 <0>        -0.6828
      7 C4         -3.6111   -0.7402    1.0073 C.3       1 <0>         0.1364
      8 H2         -4.3393   -1.3536    0.4766 H         1 <0>         0.1132
      9 C5         -2.8217   -1.6152    1.9830 C.3       1 <0>        -0.0947
     10 C6         -3.7928   -2.3519    2.9078 C.3       1 <0>        -0.1582
     11 C7         -1.9926   -2.6339    1.1984 C.3       1 <0>        -0.1371
     12 C8         -4.3283    0.3429    1.7712 C.2       1 <0>         0.5368
     13 O2         -3.7509    1.3726    2.0495 O.2       1 <0>        -0.5128
     14 N2         -5.6112    0.1675    2.1451 N.am      1 <0>        -0.5909
     15 C9         -6.4561   -0.9903    1.7997 C.3       1 <0>         0.0874
     16 C10        -7.5348   -1.0392    2.9104 C.3       1 <0>        -0.1323
     17 C11        -7.7959    0.4701    3.1578 C.3       1 <0>        -0.1285
     18 C12        -6.3979    1.0958    2.9701 C.3       1 <0>         0.1200
     19 H3         -6.4889    2.0564    2.4631 H         1 <0>         0.1049
     20 C13        -5.7324    1.2811    4.3095 C.2       1 <0>         0.5093
     21 O3         -4.6993    0.6970    4.5592 O.2       1 <0>        -0.5156
     22 N3         -6.2854    2.0958    5.2298 N.am      1 <0>        -0.7021
     23 C14        -5.6385    2.2758    6.5318 C.3       1 <0>         0.1336
     24 H4         -5.1732    1.3392    6.8390 H         1 <0>         0.1107
     25 C15        -4.5695    3.3651    6.4239 C.3       1 <0>        -0.1222
     26 C16        -3.4587    2.8979    5.4812 C.3       1 <0>        -0.0887
     27 C17        -2.4537    4.0330    5.2751 C.3       1 <0>        -0.1438
     28 C18        -2.7456    1.6900    6.0924 C.3       1 <0>        -0.1329
     29 C19        -6.6694    2.6831    7.5529 C.2       1 <0>         0.5065
     30 O4         -7.8301    2.8104    7.2252 O.2       1 <0>        -0.5447
     31 N4         -6.3014    2.9059    8.8301 N.am      1 <0>        -0.6824
     32 C20        -7.3035    3.3018    9.8227 C.3       1 <0>         0.0851
     33 H5         -8.2480    2.8035    9.6042 H         1 <0>         0.0846
     34 C21        -6.8253    2.8986   11.2190 C.3       1 <0>        -0.0789
     35 C22        -6.7471    1.3963   11.3089 C.ar      1 <0>        -0.0721
     36 C23        -7.8491    0.6713   11.7231 C.ar      1 <0>        -0.0991
     37 C24        -7.7798   -0.7058   11.8067 C.ar      1 <0>        -0.1405
     38 C25        -6.6033   -1.3614   11.4742 C.ar      1 <0>         0.0874
     39 C26        -5.4990   -0.6318   11.0584 C.ar      1 <0>        -0.1424
     40 C27        -5.5751    0.7449   10.9715 C.ar      1 <0>        -0.1022
     41 O5         -6.5324   -2.7161   11.5560 O.3       1 <0>        -0.5014
     42 C28        -7.4995    4.7951    9.7706 C.2       1 <0>         0.4924
     43 O6         -8.5813    5.2783   10.0580 O.co2     1 <0>        -0.6887
     44 O7         -6.5762    5.5200    9.4411 O.co2     1 <0>        -0.6870
     45 N5         -1.1422   -1.1177   -3.1615 N.4       1 <0>        -0.6195
     46 H6         -1.3094    1.5615   -3.3151 H         1 <0>         0.0997
     47 H7         -2.9391    0.8814   -3.0915 H         1 <0>         0.0905
     48 H8         -2.1705    1.8016   -1.7759 H         1 <0>         0.1133
     49 H9         -2.3444    0.7611    0.2014 H         1 <0>         0.4185
     50 H10        -2.1581   -0.9880    2.5783 H         1 <0>         0.0860
     51 H11        -4.4163   -3.0243    2.3185 H         1 <0>         0.0573
     52 H12        -3.2293   -2.9284    3.6414 H         1 <0>         0.0675
     53 H13        -4.4246   -1.6279    3.4222 H         1 <0>         0.0779
     54 H14        -1.3007   -2.1091    0.5395 H         1 <0>         0.0382
     55 H15        -1.4302   -3.2573    1.8935 H         1 <0>         0.0610
     56 H16        -2.6561   -3.2611    0.6030 H         1 <0>         0.0686
     57 H17        -6.9214   -0.8430    0.8251 H         1 <0>         0.0759
     58 H18        -5.8650   -1.9061    1.8044 H         1 <0>         0.0851
     59 H19        -8.4368   -1.5390    2.5572 H         1 <0>         0.0937
     60 H20        -7.1492   -1.5214    3.8086 H         1 <0>         0.0824
     61 H21        -8.5005    0.8646    2.4257 H         1 <0>         0.0928
     62 H22        -8.1579    0.6376    4.1722 H         1 <0>         0.0975
     63 H23        -7.1117    2.5629    5.0300 H         1 <0>         0.4098
     64 H24        -5.0188    4.2776    6.0319 H         1 <0>         0.0721
     65 H25        -4.1500    3.5615    7.4106 H         1 <0>         0.0794
     66 H26        -3.8913    2.6168    4.5210 H         1 <0>         0.0820
     67 H27        -2.0211    4.3140    6.2353 H         1 <0>         0.0522
     68 H28        -1.6623    3.7001    4.6035 H         1 <0>         0.0469
     69 H29        -2.9617    4.8934    4.8397 H         1 <0>         0.0491
     70 H30        -3.4615    0.8814    6.2392 H         1 <0>         0.0685
     71 H31        -1.9542    1.3572    5.4208 H         1 <0>         0.0411
     72 H32        -2.3130    1.9711    7.0525 H         1 <0>         0.0400
     73 H33        -5.3730    2.8041    9.0922 H         1 <0>         0.3919
     74 H34        -5.8393    3.3254   11.4028 H         1 <0>         0.0782
     75 H35        -7.5273    3.2711   11.9651 H         1 <0>         0.0907
     76 H36        -8.7648    1.1822   11.9819 H         1 <0>         0.1291
     77 H37        -8.6407   -1.2716   12.1310 H         1 <0>         0.1255
     78 H38        -4.5820   -1.1398   10.7990 H         1 <0>         0.1237
     79 H39        -4.7171    1.3130   10.6436 H         1 <0>         0.1226
     80 H40        -6.7848   -3.1731   10.7421 H         1 <0>         0.3848
     81 H41        -0.5086   -0.6981   -3.8252 H         1 <0>         0.4425
     82 H42        -0.7375   -1.9693   -2.8022 H         1 <0>         0.4425
     83 H43        -2.0171   -1.3277   -3.6181 H         1 <0>         0.4399
@<TRIPOS>BOND
     1    1    2 1
     2    1   46 1
     3    1   47 1
     4    1   48 1
     5    2    3 1
     6    2    4 1
     7    2   45 1
     8    4    5 2
     9    4    6 am
    10    6    7 1
    11    6   49 1
    12    7    8 1
    13    7    9 1
    14    7   12 1
    15    9   10 1
    16    9   11 1
    17    9   50 1
    18   10   51 1
    19   10   52 1
    20   10   53 1
    21   11   54 1
    22   11   55 1
    23   11   56 1
    24   12   13 2
    25   12   14 am
    26   14   18 1
    27   14   15 1
    28   15   16 1
    29   15   57 1
    30   15   58 1
    31   16   17 1
    32   16   59 1
    33   16   60 1
    34   17   18 1
    35   17   61 1
    36   17   62 1
    37   18   19 1
    38   18   20 1
    39   20   21 2
    40   20   22 am
    41   22   23 1
    42   22   63 1
    43   23   24 1
    44   23   25 1
    45   23   29 1
    46   25   26 1
    47   25   64 1
    48   25   65 1
    49   26   27 1
    50   26   28 1
    51   26   66 1
    52   27   67 1
    53   27   68 1
    54   27   69 1
    55   28   70 1
    56   28   71 1
    57   28   72 1
    58   29   30 2
    59   29   31 am
    60   31   32 1
    61   31   73 1
    62   32   33 1
    63   32   34 1
    64   32   42 1
    65   34   35 1
    66   34   74 1
    67   34   75 1
    68   35   40 ar
    69   35   36 ar
    70   36   37 ar
    71   36   76 1
    72   37   38 ar
    73   37   77 1
    74   38   39 ar
    75   38   41 1
    76   39   40 ar
    77   39   78 1
    78   40   79 1
    79   41   80 1
    80   42   43 2
    81   42   44 1
    82   45   81 1
    83   45   82 1
    84   45   83 1
@<TRIPOS>MOLECULE
CHEMBL575597
   76    79     0     0     0
SMALL
USER_CHARGES

@<TRIPOS>ATOM
      1 C1         -0.0187    1.5258    0.0104 C.3       1 <0>        -0.1700
      2 C2          0.0021   -0.0041    0.0020 C.3       1 <0>        -0.1419
      3 C3          0.7421   -0.5109    1.2415 C.3       1 <0>         0.0105
      4 H1          0.2852   -0.0874    2.1360 H         1 <0>         0.1645
      5 C4          0.6567   -2.0144    1.2978 C.2       1 <0>         0.5021
      6 O1          1.5928   -2.6893    0.9247 O.2       1 <0>        -0.4971
      7 N1         -0.4599   -2.6091    1.7626 N.am      1 <0>        -0.6879
      8 C5         -0.5427   -4.0679    1.8171 C.3       1 <0>         0.1515
      9 H2          0.4588   -4.4549    2.0628 H         1 <0>         0.1271
     10 C6         -1.5074   -4.5160    2.9101 C.3       1 <0>        -0.0987
     11 H3         -1.8605   -5.5274    2.6930 H         1 <0>         0.1022
     12 C7         -2.6964   -3.5674    3.0180 C.3       1 <0>        -0.1279
     13 C8         -3.4323   -3.4492    1.6884 C.3       1 <0>        -0.1381
     14 C9         -3.3933   -4.7847    0.9485 C.3       1 <0>         0.1281
     15 H4         -3.3996   -5.6062    1.6675 H         1 <0>         0.0891
     16 C10        -4.6238   -4.8930    0.0315 C.3       1 <0>        -0.1272
     17 C11        -4.0935   -5.6110   -1.2243 C.3       1 <0>        -0.1274
     18 C12        -2.5967   -5.2610   -1.2577 C.3       1 <0>         0.1178
     19 H5         -2.0178   -6.1310   -1.5752 H         1 <0>         0.1091
     20 N2         -2.1984   -4.8635    0.1043 N.am      1 <0>        -0.5814
     21 C13        -0.9315   -4.6124    0.4753 C.2       1 <0>         0.5240
     22 O2         -0.0455   -4.8486   -0.3247 O.2       1 <0>        -0.5107
     23 C14        -2.3664   -4.1202   -2.2198 C.2       1 <0>         0.5199
     24 O3         -1.9086   -3.0714   -1.8184 O.2       1 <0>        -0.5279
     25 N3         -2.6697   -4.2676   -3.5247 N.am      1 <0>        -0.7205
     26 C15        -2.4462   -3.1609   -4.4582 C.3       1 <0>         0.2369
     27 C16        -1.0172   -3.1873   -4.9359 C.ar      1 <0>        -0.0899
     28 C17        -0.4091   -4.3933   -5.2303 C.ar      1 <0>        -0.0991
     29 C18         0.9017   -4.4176   -5.6685 C.ar      1 <0>        -0.1160
     30 C19         1.6043   -3.2359   -5.8128 C.ar      1 <0>        -0.1160
     31 C20         0.9959   -2.0298   -5.5193 C.ar      1 <0>        -0.1203
     32 C21        -0.3163   -2.0052   -5.0852 C.ar      1 <0>        -0.1049
     33 C22        -3.3730   -3.3039   -5.6379 C.ar      1 <0>        -0.0946
     34 C23        -3.6182   -4.5530   -6.1768 C.ar      1 <0>        -0.1123
     35 C24        -4.4683   -4.6842   -7.2590 C.ar      1 <0>        -0.1121
     36 C25        -5.0736   -3.5663   -7.8019 C.ar      1 <0>        -0.1121
     37 C26        -4.8291   -2.3172   -7.2624 C.ar      1 <0>        -0.1127
     38 C27        -3.9824   -2.1866   -6.1776 C.ar      1 <0>        -0.1045
     39 C28        -0.7644   -4.5423    4.2540 C.3       1 <0>        -0.1158
     40 C29        -1.6864   -5.1089    5.3355 C.3       1 <0>         0.0729
     41 O4         -0.9951   -5.1334    6.5859 O.3       1 <0>        -0.5755
     42 N4          2.1515   -0.1027    1.1714 N.4       1 <0>        -0.6213
     43 H6          1.0039    1.9031    0.0027 H         1 <0>         0.0551
     44 H7         -0.5459    1.8868   -0.8726 H         1 <0>         0.0888
     45 H8         -0.5289    1.8773    0.9072 H         1 <0>         0.0750
     46 H9         -1.0205   -0.3814    0.0098 H         1 <0>         0.1173
     47 H10         0.5123   -0.3556   -0.8948 H         1 <0>         0.0991
     48 H11        -1.2085   -2.0693    2.0610 H         1 <0>         0.4108
     49 H12        -3.3929   -3.9568    3.7719 H         1 <0>         0.0855
     50 H13        -2.3639   -2.5825    3.3464 H         1 <0>         0.0702
     51 H14        -4.4743   -3.1746    1.8756 H         1 <0>         0.0883
     52 H15        -2.9734   -2.6773    1.0724 H         1 <0>         0.0730
     53 H16        -5.4031   -5.4875    0.5063 H         1 <0>         0.0948
     54 H17        -4.9995   -3.9040   -0.2244 H         1 <0>         0.0812
     55 H18        -4.2332   -6.6865   -1.1352 H         1 <0>         0.0944
     56 H19        -4.5946   -5.2323   -2.1151 H         1 <0>         0.0911
     57 H20        -3.0358   -5.1065   -3.8458 H         1 <0>         0.4016
     58 H21        -2.6433   -2.2148   -3.9540 H         1 <0>         0.1010
     59 H22        -0.9580   -5.3166   -5.1176 H         1 <0>         0.1152
     60 H23         1.3771   -5.3599   -5.8979 H         1 <0>         0.1232
     61 H24         2.6286   -3.2549   -6.1545 H         1 <0>         0.1226
     62 H25         1.5449   -1.1066   -5.6317 H         1 <0>         0.1213
     63 H26        -0.7928   -1.0627   -4.8594 H         1 <0>         0.1178
     64 H27        -3.1453   -5.4264   -5.7527 H         1 <0>         0.1179
     65 H28        -4.6593   -5.6600   -7.6805 H         1 <0>         0.1268
     66 H29        -5.7372   -3.6687   -8.6478 H         1 <0>         0.1265
     67 H30        -5.3018   -1.4438   -7.6868 H         1 <0>         0.1269
     68 H31        -3.7943   -1.2112   -5.7538 H         1 <0>         0.1222
     69 H32         0.1222   -5.1704    4.1667 H         1 <0>         0.0778
     70 H33        -0.4667   -3.5292    4.5245 H         1 <0>         0.0720
     71 H34        -2.5730   -4.4808    5.4227 H         1 <0>         0.0502
     72 H35        -1.9841   -6.1220    5.0650 H         1 <0>         0.0489
     73 H36        -1.5206   -5.4818    7.3191 H         1 <0>         0.3873
     74 H37         2.2086    0.9039    1.1338 H         1 <0>         0.4405
     75 H38         2.6395   -0.4370    1.9889 H         1 <0>         0.4404
     76 H39         2.5744   -0.4948    0.3435 H         1 <0>         0.4432
@<TRIPOS>BOND
     1    1    2 1
     2    1   43 1
     3    1   44 1
     4    1   45 1
     5    2    3 1
     6    2   46 1
     7    2   47 1
     8    3    4 1
     9    3    5 1
    10    3   42 1
    11    5    6 2
    12    5    7 am
    13    7    8 1
    14    7   48 1
    15    8    9 1
    16    8   21 1
    17    8   10 1
    18   10   11 1
    19   10   12 1
    20   10   39 1
    21   12   13 1
    22   12   49 1
    23   12   50 1
    24   13   14 1
    25   13   51 1
    26   13   52 1
    27   14   15 1
    28   14   20 1
    29   14   16 1
    30   16   17 1
    31   16   53 1
    32   16   54 1
    33   17   18 1
    34   17   55 1
    35   17   56 1
    36   18   19 1
    37   18   20 1
    38   18   23 1
    39   20   21 am
    40   21   22 2
    41   23   24 2
    42   23   25 am
    43   25   26 1
    44   25   57 1
    45   26   27 1
    46   26   33 1
    47   26   58 1
    48   27   32 ar
    49   27   28 ar
    50   28   29 ar
    51   28   59 1
    52   29   30 ar
    53   29   60 1
    54   30   31 ar
    55   30   61 1
    56   31   32 ar
    57   31   62 1
    58   32   63 1
    59   33   38 ar
    60   33   34 ar
    61   34   35 ar
    62   34   64 1
    63   35   36 ar
    64   35   65 1
    65   36   37 ar
    66   36   66 1
    67   37   38 ar
    68   37   67 1
    69   38   68 1
    70   39   40 1
    71   39   69 1
    72   39   70 1
    73   40   41 1
    74   40   71 1
    75   40   72 1
    76   41   73 1
    77   42   74 1
    78   42   75 1
    79   42   76 1
@<TRIPOS>MOLECULE
CHEMBL578239
   74    77     0     0     0
SMALL
USER_CHARGES

@<TRIPOS>ATOM
      1 C1         -0.0187    1.5258    0.0104 C.3       1 <0>        -0.1702
      2 C2          0.0021   -0.0041    0.0020 C.3       1 <0>        -0.1423
      3 C3          0.7182   -0.4975   -1.2568 C.3       1 <0>         0.0107
      4 H1          1.7103   -0.0491   -1.3098 H         1 <0>         0.1657
      5 C4          0.8473   -1.9981   -1.2057 C.2       1 <0>         0.5025
      6 O1          0.0734   -2.6948   -1.8275 O.2       1 <0>        -0.4966
      7 N1          1.8227   -2.5659   -0.4690 N.am      1 <0>        -0.6893
      8 C5          1.9479   -4.0218   -0.4195 C.3       1 <0>         0.1507
      9 H2          1.6698   -4.4194   -1.4083 H         1 <0>         0.1262
     10 C6          3.3875   -4.4329   -0.1289 C.3       1 <0>        -0.1004
     11 H3          3.4014   -5.4428    0.2890 H         1 <0>         0.1037
     12 C7          4.0513   -3.4639    0.8436 C.3       1 <0>        -0.1199
     13 C8          3.2649   -3.3608    2.1453 C.3       1 <0>        -0.1381
     14 C9          2.6383   -4.7114    2.4861 C.3       1 <0>         0.1268
     15 H4          3.2846   -5.5181    2.1349 H         1 <0>         0.0889
     16 C10         2.4620   -4.8188    4.0106 C.3       1 <0>        -0.1268
     17 C11         1.1277   -5.5699    4.1817 C.3       1 <0>        -0.1277
     18 C12         0.3420   -5.2440    2.9009 C.3       1 <0>         0.1180
     19 H5         -0.2003   -6.1291    2.5612 H         1 <0>         0.1091
     20 N2          1.3122   -4.8256    1.8736 N.am      1 <0>        -0.5805
     21 C13         0.9940   -4.5869    0.5900 C.2       1 <0>         0.5250
     22 O2         -0.1354   -4.8528    0.2235 O.2       1 <0>        -0.5095
     23 C14        -0.6347   -4.1264    3.1785 C.2       1 <0>         0.5203
     24 O3         -0.5422   -3.0770    2.5776 O.2       1 <0>        -0.5280
     25 N3         -1.6093   -4.2952    4.0940 N.am      1 <0>        -0.7203
     26 C15        -2.5570   -3.2109    4.3633 C.3       1 <0>         0.2370
     27 C16        -3.6840   -3.2692    3.3647 C.ar      1 <0>        -0.0898
     28 C17        -4.2126   -4.4901    2.9894 C.ar      1 <0>        -0.0992
     29 C18        -5.2464   -4.5436    2.0733 C.ar      1 <0>        -0.1161
     30 C19        -5.7521   -3.3761    1.5329 C.ar      1 <0>        -0.1160
     31 C20        -5.2242   -2.1550    1.9088 C.ar      1 <0>        -0.1203
     32 C21        -4.1932   -2.1013    2.8281 C.ar      1 <0>        -0.1048
     33 C22        -3.1117   -3.3630    5.7562 C.ar      1 <0>        -0.0949
     34 C23        -3.4244   -4.6187    6.2424 C.ar      1 <0>        -0.1123
     35 C24        -3.9332   -4.7582    7.5201 C.ar      1 <0>        -0.1121
     36 C25        -4.1289   -3.6421    8.3118 C.ar      1 <0>        -0.1119
     37 C26        -3.8153   -2.3865    7.8260 C.ar      1 <0>        -0.1126
     38 C27        -3.3024   -2.2473    6.5499 C.ar      1 <0>        -0.1044
     39 C28         4.1804   -4.4439   -1.4441 C.3       1 <0>         0.0797
     40 N4          5.5318   -4.9518   -1.1954 N.2       1 <0>        -0.4071
     41 N5          5.8915   -5.8754   -1.7254 N.1       1 <0>         0.2956
     42 N6          6.2435   -6.7794   -2.2440 N.1       1 <0>        -0.1498
     43 N7         -0.0570   -0.1128   -2.4438 N.4       1 <0>        -0.6216
     44 H6          1.0039    1.9031    0.0027 H         1 <0>         0.0755
     45 H7         -0.5459    1.8868   -0.8726 H         1 <0>         0.0549
     46 H8         -0.5289    1.8773    0.9072 H         1 <0>         0.0890
     47 H9          0.5293   -0.3651    0.8851 H         1 <0>         0.1182
     48 H10        -1.0205   -0.3814    0.0098 H         1 <0>         0.0991
     49 H11         2.4416   -2.0086    0.0283 H         1 <0>         0.4134
     50 H12         5.0618   -3.8273    1.0713 H         1 <0>         0.0965
     51 H13         4.1448   -2.4779    0.3880 H         1 <0>         0.0718
     52 H14         3.9408   -3.0664    2.9532 H         1 <0>         0.0900
     53 H15         2.4829   -2.6087    2.0531 H         1 <0>         0.0726
     54 H16         3.2775   -5.3915    4.4502 H         1 <0>         0.0952
     55 H17         2.4033   -3.8293    4.4604 H         1 <0>         0.0820
     56 H18         1.3017   -6.6412    4.2619 H         1 <0>         0.0943
     57 H19         0.5973   -5.2013    5.0597 H         1 <0>         0.0916
     58 H20        -1.6833   -5.1345    4.5746 H         1 <0>         0.4017
     59 H21        -2.0456   -2.2520    4.2786 H         1 <0>         0.1014
     60 H22        -3.8175   -5.4023    3.4116 H         1 <0>         0.1152
     61 H23        -5.6588   -5.4975    1.7796 H         1 <0>         0.1231
     62 H24        -6.5593   -3.4179    0.8166 H         1 <0>         0.1225
     63 H25        -5.6190   -1.2429    1.4863 H         1 <0>         0.1213
     64 H26        -3.7832   -1.1472    3.1246 H         1 <0>         0.1179
     65 H27        -3.2715   -5.4907    5.6238 H         1 <0>         0.1178
     66 H28        -4.1782   -5.7392    7.8996 H         1 <0>         0.1268
     67 H29        -4.5271   -3.7510    9.3098 H         1 <0>         0.1265
     68 H30        -3.9685   -1.5144    8.4445 H         1 <0>         0.1270
     69 H31        -3.0540   -1.2667    6.1717 H         1 <0>         0.1223
     70 H32         3.6776   -5.0873   -2.1661 H         1 <0>         0.0688
     71 H33         4.2405   -3.4304   -1.8407 H         1 <0>         0.1022
     72 H34        -0.9754   -0.5279   -2.3947 H         1 <0>         0.4433
     73 H35        -0.1435    0.8919   -2.4780 H         1 <0>         0.4410
     74 H36         0.4152   -0.4382   -3.2739 H         1 <0>         0.4399
@<TRIPOS>BOND
     1    1    2 1
     2    1   44 1
     3    1   45 1
     4    1   46 1
     5    2    3 1
     6    2   47 1
     7    2   48 1
     8    3    4 1
     9    3    5 1
    10    3   43 1
    11    5    6 2
    12    5    7 am
    13    7    8 1
    14    7   49 1
    15    8    9 1
    16    8   21 1
    17    8   10 1
    18   10   11 1
    19   10   12 1
    20   10   39 1
    21   12   13 1
    22   12   50 1
    23   12   51 1
    24   13   14 1
    25   13   52 1
    26   13   53 1
    27   14   15 1
    28   14   20 1
    29   14   16 1
    30   16   17 1
    31   16   54 1
    32   16   55 1
    33   17   18 1
    34   17   56 1
    35   17   57 1
    36   18   19 1
    37   18   20 1
    38   18   23 1
    39   20   21 am
    40   21   22 2
    41   23   24 2
    42   23   25 am
    43   25   26 1
    44   25   58 1
    45   26   27 1
    46   26   33 1
    47   26   59 1
    48   27   32 ar
    49   27   28 ar
    50   28   29 ar
    51   28   60 1
    52   29   30 ar
    53   29   61 1
    54   30   31 ar
    55   30   62 1
    56   31   32 ar
    57   31   63 1
    58   32   64 1
    59   33   38 ar
    60   33   34 ar
    61   34   35 ar
    62   34   65 1
    63   35   36 ar
    64   35   66 1
    65   36   37 ar
    66   36   67 1
    67   37   38 ar
    68   37   68 1
    69   38   69 1
    70   39   40 1
    71   39   70 1
    72   39   71 1
    73   40   41 2
    74   41   42 2
    75   43   72 1
    76   43   73 1
    77   43   74 1
@<TRIPOS>MOLECULE
CHEMBL475670
   82    86     0     0     0
SMALL
USER_CHARGES

@<TRIPOS>ATOM
      1 C1         -0.0187    1.5258    0.0104 C.3       1 <0>        -0.1863
      2 C2          0.0021   -0.0041    0.0020 C.3       1 <0>         0.0034
      3 H1          0.5293   -0.3651    0.8851 H         1 <0>         0.1624
      4 C3         -1.4117   -0.5257    0.0127 C.2       1 <0>         0.5065
      5 O1         -1.8076   -1.2234   -0.8969 O.2       1 <0>        -0.4814
      6 N1         -2.2363   -0.2169    1.0331 N.am      1 <0>        -0.6972
      7 C4         -3.6102   -0.7238    1.0435 C.3       1 <0>         0.1443
      8 H2         -3.5983   -1.7300    0.5941 H         1 <0>         0.1235
      9 C5         -4.1059   -0.8598    2.4807 C.3       1 <0>        -0.1289
     10 C6         -5.4899   -0.2505    2.6638 C.3       1 <0>        -0.1318
     11 C7         -5.3381    1.0987    3.3511 C.3       1 <0>        -0.1269
     12 C8         -4.2416    1.9404    2.7058 C.3       1 <0>        -0.1283
     13 C9         -4.7084    2.4496    1.3554 C.3       1 <0>         0.1578
     14 H3         -5.7599    2.7642    1.4419 H         1 <0>         0.0811
     15 C10        -3.8749    3.6641    0.9039 C.3       1 <0>        -0.0933
     16 H4         -4.2294    4.5744    1.3834 H         1 <0>         0.1002
     17 C11        -4.1448    3.7096   -0.6161 C.3       1 <0>        -0.1292
     18 C12        -4.6511    2.2997   -0.9750 C.3       1 <0>         0.1137
     19 H5         -5.6803    2.3499   -1.3393 H         1 <0>         0.1004
     20 N2         -4.6013    1.4783    0.2711 N.am      1 <0>        -0.6248
     21 C13        -4.4933    0.1486    0.2143 C.2       1 <0>         0.5729
     22 O2         -5.2229   -0.4224   -0.5902 O.2       1 <0>        -0.5095
     23 C14        -3.7635    1.6975   -2.0377 C.2       1 <0>         0.5112
     24 O3         -3.1474    0.6786   -1.8072 O.2       1 <0>        -0.5123
     25 N3         -3.6559    2.2923   -3.2423 N.am      1 <0>        -0.7192
     26 C15        -2.7947    1.7079   -4.2734 C.3       1 <0>         0.2021
     27 H6         -1.9205    1.2607   -3.8003 H         1 <0>         0.0860
     28 C16        -2.3415    2.8064   -5.2329 C.3       1 <0>        -0.1285
     29 C17        -1.6275    2.1479   -6.4193 C.3       1 <0>        -0.1125
     30 C18        -2.6674    1.4027   -7.2538 C.3       1 <0>        -0.0864
     31 C19        -3.4974    0.4983   -6.3808 C.ar      1 <0>        -0.0681
     32 C20        -3.5592    0.6415   -5.0132 C.ar      1 <0>        -0.1105
     33 C21        -4.3500   -0.2225   -4.2672 C.ar      1 <0>        -0.0998
     34 C22        -5.0710   -1.2235   -4.8853 C.ar      1 <0>        -0.1250
     35 C23        -5.0059   -1.3685   -6.2584 C.ar      1 <0>        -0.1087
     36 C24        -4.2219   -0.5116   -7.0004 C.ar      1 <0>        -0.1282
     37 C25        -2.3855    3.4552    1.1709 C.3       1 <0>        -0.0811
     38 C26        -1.6320    4.7142    0.8267 C.ar      1 <0>        -0.0868
     39 C27        -1.1456    4.9003   -0.4538 C.ar      1 <0>        -0.1227
     40 C28        -0.4545    6.0551   -0.7696 C.ar      1 <0>        -0.1157
     41 C29        -0.2502    7.0240    0.1951 C.ar      1 <0>        -0.1177
     42 C30        -0.7374    6.8382    1.4753 C.ar      1 <0>        -0.1106
     43 C31        -1.4322    5.6853    1.7899 C.ar      1 <0>        -0.1137
     44 N4          0.6897   -0.4778   -1.2066 N.4       1 <0>        -0.4938
     45 C32         2.1002   -0.0703   -1.1590 C.3       1 <0>        -0.0503
     46 H7          1.0039    1.9031    0.0027 H         1 <0>         0.0975
     47 H8         -0.5459    1.8868   -0.8726 H         1 <0>         0.0893
     48 H9         -0.5289    1.8773    0.9072 H         1 <0>         0.1118
     49 H10        -1.9197    0.3412    1.7606 H         1 <0>         0.4016
     50 H11        -4.1536   -1.9228    2.7388 H         1 <0>         0.0849
     51 H12        -3.4020   -0.3781    3.1589 H         1 <0>         0.0840
     52 H13        -5.9938   -0.1309    1.7112 H         1 <0>         0.0736
     53 H14        -6.0896   -0.9087    3.3010 H         1 <0>         0.0792
     54 H15        -6.2843    1.6378    3.2897 H         1 <0>         0.0714
     55 H16        -5.0912    0.9369    4.4010 H         1 <0>         0.0722
     56 H17        -4.0342    2.7944    3.3623 H         1 <0>         0.0876
     57 H18        -3.3354    1.3524    2.6074 H         1 <0>         0.0673
     58 H19        -4.9078    4.4565   -0.8399 H         1 <0>         0.0912
     59 H20        -3.2262    3.9362   -1.1573 H         1 <0>         0.0868
     60 H21        -4.1486    3.1072   -3.4266 H         1 <0>         0.4043
     61 H22        -3.2082    3.3632   -5.5892 H         1 <0>         0.0763
     62 H23        -1.6560    3.4815   -4.7207 H         1 <0>         0.0732
     63 H24        -1.1470    2.9129   -7.0292 H         1 <0>         0.0770
     64 H25        -0.8786    1.4455   -6.0533 H         1 <0>         0.0643
     65 H26        -3.3190    2.1254   -7.7449 H         1 <0>         0.0796
     66 H27        -2.1596    0.8049   -8.0106 H         1 <0>         0.0781
     67 H28        -4.4010   -0.1102   -3.1942 H         1 <0>         0.1367
     68 H29        -5.6837   -1.8916   -4.2984 H         1 <0>         0.1193
     69 H30        -5.5662   -2.1514   -6.7477 H         1 <0>         0.1222
     70 H31        -4.1720   -0.6257   -8.0731 H         1 <0>         0.1216
     71 H32        -2.2349    3.2181    2.2240 H         1 <0>         0.0790
     72 H33        -2.0182    2.6327    0.5571 H         1 <0>         0.0744
     73 H34        -1.3053    4.1434   -1.2075 H         1 <0>         0.1117
     74 H35        -0.0739    6.2003   -1.7698 H         1 <0>         0.1206
     75 H36         0.2904    7.9259   -0.0514 H         1 <0>         0.1235
     76 H37        -0.5775    7.5950    2.2291 H         1 <0>         0.1247
     77 H38        -1.8161    5.5418    2.7892 H         1 <0>         0.1226
     78 H39         0.6317   -1.4840   -1.2540 H         1 <0>         0.4370
     79 H40         2.5740   -0.5034   -0.2781 H         1 <0>         0.1266
     80 H41         2.6104   -0.4218   -2.0558 H         1 <0>         0.1322
     81 H42         2.1628    1.0167   -1.1079 H         1 <0>         0.1258
     82 H43         0.2511   -0.0769   -2.0221 H         1 <0>         0.4344
@<TRIPOS>BOND
     1    1    2 1
     2    1   46 1
     3    1   47 1
     4    1   48 1
     5    2    3 1
     6    2    4 1
     7    2   44 1
     8    4    5 2
     9    4    6 am
    10    6    7 1
    11    6   49 1
    12    7    8 1
    13    7   21 1
    14    7    9 1
    15    9   10 1
    16    9   50 1
    17    9   51 1
    18   10   11 1
    19   10   52 1
    20   10   53 1
    21   11   12 1
    22   11   54 1
    23   11   55 1
    24   12   13 1
    25   12   56 1
    26   12   57 1
    27   13   14 1
    28   13   20 1
    29   13   15 1
    30   15   16 1
    31   15   17 1
    32   15   37 1
    33   17   18 1
    34   17   58 1
    35   17   59 1
    36   18   19 1
    37   18   20 1
    38   18   23 1
    39   20   21 am
    40   21   22 2
    41   23   24 2
    42   23   25 am
    43   25   26 1
    44   25   60 1
    45   26   27 1
    46   26   32 1
    47   26   28 1
    48   28   29 1
    49   28   61 1
    50   28   62 1
    51   29   30 1
    52   29   63 1
    53   29   64 1
    54   30   31 1
    55   30   65 1
    56   30   66 1
    57   31   36 ar
    58   31   32 ar
    59   32   33 ar
    60   33   34 ar
    61   33   67 1
    62   34   35 ar
    63   34   68 1
    64   35   36 ar
    65   35   69 1
    66   36   70 1
    67   37   38 1
    68   37   71 1
    69   37   72 1
    70   38   43 ar
    71   38   39 ar
    72   39   40 ar
    73   39   73 1
    74   40   41 ar
    75   40   74 1
    76   41   42 ar
    77   41   75 1
    78   42   43 ar
    79   42   76 1
    80   43   77 1
    81   44   45 1
    82   44   78 1
    83   44   82 1
    84   45   79 1
    85   45   80 1
    86   45   81 1
@<TRIPOS>MOLECULE
CHEMBL189145
   84    86     0     0     0
SMALL
USER_CHARGES

@<TRIPOS>ATOM
      1 C1         -0.8868    0.8011    2.6931 C.3       1 <0>        -0.1836
      2 C2         -0.9150   -0.7149    2.4885 C.3       1 <0>         0.0084
      3 H1         -0.7923   -0.9409    1.4293 H         1 <0>         0.1689
      4 C3          0.2067   -1.3483    3.2705 C.2       1 <0>         0.5022
      5 O1         -0.0408   -2.1639    4.1334 O.2       1 <0>        -0.5254
      6 N1          1.4848   -1.0085    3.0111 N.am      1 <0>        -0.6755
      7 C4          2.5752   -1.6243    3.7714 C.3       1 <0>         0.1376
      8 H2          2.2516   -1.7939    4.7983 H         1 <0>         0.1146
      9 C5          2.9541   -2.9601    3.1288 C.3       1 <0>        -0.1030
     10 C6          1.7895   -3.9424    3.2699 C.3       1 <0>        -0.1363
     11 C7          3.2618   -2.7436    1.6458 C.3       1 <0>        -0.1488
     12 C8          3.7712   -0.7074    3.7665 C.2       1 <0>         0.5281
     13 O2          3.8554    0.1752    2.9389 O.2       1 <0>        -0.4960
     14 N2          4.7474   -0.8683    4.6818 N.am      1 <0>        -0.5924
     15 C9          4.8323   -1.9646    5.6638 C.3       1 <0>         0.0927
     16 C10         6.3374   -2.0659    6.0159 C.3       1 <0>        -0.1321
     17 C11         6.7613   -0.5734    6.0038 C.3       1 <0>        -0.1288
     18 C12         5.9073    0.0170    4.8621 C.3       1 <0>         0.1242
     19 H3          5.5711    1.0179    5.1327 H         1 <0>         0.1007
     20 C13         6.7138    0.0705    3.5902 C.2       1 <0>         0.5197
     21 O3          6.4559   -0.6841    2.6764 O.2       1 <0>        -0.5212
     22 N3          7.7217    0.9570    3.4682 N.am      1 <0>        -0.7013
     23 C14         8.4471    1.0714    2.2005 C.3       1 <0>         0.1389
     24 H4          8.1988    0.2236    1.5621 H         1 <0>         0.1188
     25 C15         8.0477    2.3716    1.4999 C.3       1 <0>        -0.0921
     26 C16         6.5980    2.2990    1.0947 C.ar      1 <0>        -0.0632
     27 C17         6.2477    1.7484   -0.1240 C.ar      1 <0>        -0.1103
     28 C18         4.9180    1.6819   -0.4957 C.ar      1 <0>        -0.1159
     29 C19         3.9384    2.1655    0.3514 C.ar      1 <0>        -0.1213
     30 C20         4.2886    2.7152    1.5704 C.ar      1 <0>        -0.0910
     31 C21         5.6181    2.7779    1.9440 C.ar      1 <0>        -0.1032
     32 C22         9.9299    1.0806    2.4694 C.2       1 <0>         0.5032
     33 O4         10.3403    0.9996    3.6077 O.2       1 <0>        -0.5402
     34 N4         10.7999    1.1789    1.4447 N.am      1 <0>        -0.6846
     35 C23        12.2414    1.1879    1.7061 C.3       1 <0>         0.0855
     36 H5         12.4616    0.5347    2.5504 H         1 <0>         0.0840
     37 C24        12.9874    0.6889    0.4670 C.3       1 <0>        -0.0787
     38 C25        12.6365   -0.7553    0.2171 C.ar      1 <0>        -0.0720
     39 C26        13.3899   -1.7590    0.7975 C.ar      1 <0>        -0.0993
     40 C27        13.0705   -3.0835    0.5696 C.ar      1 <0>        -0.1404
     41 C28        11.9927   -3.4062   -0.2421 C.ar      1 <0>         0.0874
     42 C29        11.2382   -2.3973   -0.8229 C.ar      1 <0>        -0.1420
     43 C30        11.5584   -1.0742   -0.5877 C.ar      1 <0>        -0.1020
     44 O5         11.6768   -4.7085   -0.4682 O.3       1 <0>        -0.5016
     45 C31        12.6848    2.5917    2.0280 C.2       1 <0>         0.4927
     46 O6         13.6310    2.7761    2.7744 O.co2     1 <0>        -0.6885
     47 O7         12.0973    3.5431    1.5420 O.co2     1 <0>        -0.6876
     48 N5         -2.2010   -1.2484    2.9572 N.4       1 <0>        -0.6195
     49 H6          0.0673    1.1970    2.3453 H         1 <0>         0.1141
     50 H7         -1.6981    1.2592    2.1275 H         1 <0>         0.0990
     51 H8         -1.0096    1.0271    3.7523 H         1 <0>         0.0903
     52 H9          1.6827   -0.3562    2.3210 H         1 <0>         0.4201
     53 H10         3.8343   -3.3663    3.6270 H         1 <0>         0.0924
     54 H11         2.0594   -4.8940    2.8121 H         1 <0>         0.0589
     55 H12         1.5703   -4.0966    4.3264 H         1 <0>         0.0626
     56 H13         0.9092   -3.5362    2.7717 H         1 <0>         0.0468
     57 H14         4.0915   -2.0439    1.5453 H         1 <0>         0.0748
     58 H15         3.5317   -3.6953    1.1880 H         1 <0>         0.0608
     59 H16         2.3815   -2.3375    1.1476 H         1 <0>         0.0473
     60 H17         4.2500   -1.7232    6.5531 H         1 <0>         0.0763
     61 H18         4.4824   -2.8976    5.2219 H         1 <0>         0.0804
     62 H19         6.4789   -2.5042    7.0038 H         1 <0>         0.0934
     63 H20         6.8787   -2.6320    5.2579 H         1 <0>         0.0820
     64 H21         6.5228   -0.0970    6.9547 H         1 <0>         0.0925
     65 H22         7.8232   -0.4759    5.7780 H         1 <0>         0.0976
     66 H23         7.9667    1.5192    4.2197 H         1 <0>         0.4067
     67 H24         8.1931    3.2105    2.1805 H         1 <0>         0.0851
     68 H25         8.6662    2.5115    0.6134 H         1 <0>         0.0931
     69 H26         7.0130    1.3706   -0.7858 H         1 <0>         0.1163
     70 H27         4.6444    1.2524   -1.4481 H         1 <0>         0.1118
     71 H28         2.8996    2.1141    0.0606 H         1 <0>         0.1046
     72 H29         3.5234    3.0934    2.2321 H         1 <0>         0.1056
     73 H30         5.8914    3.2040    2.8980 H         1 <0>         0.1093
     74 H31        10.4716    1.2437    0.5343 H         1 <0>         0.3906
     75 H32        12.6986    1.2877   -0.3967 H         1 <0>         0.0782
     76 H33        14.0616    0.7790    0.6288 H         1 <0>         0.0905
     77 H34        14.2288   -1.5072    1.4293 H         1 <0>         0.1291
     78 H35        13.6597   -3.8672    1.0226 H         1 <0>         0.1254
     79 H36        10.3986   -2.6460   -1.4552 H         1 <0>         0.1233
     80 H37        10.9687   -0.2884   -1.0360 H         1 <0>         0.1222
     81 H38        11.0527   -5.0786    0.1710 H         1 <0>         0.3847
     82 H39        -2.9520   -0.8243    2.4336 H         1 <0>         0.4423
     83 H40        -2.2196   -2.2482    2.8222 H         1 <0>         0.4421
     84 H41        -2.3146   -1.0392    3.9377 H         1 <0>         0.4399
@<TRIPOS>BOND
     1    1    2 1
     2    1   49 1
     3    1   50 1
     4    1   51 1
     5    2    3 1
     6    2    4 1
     7    2   48 1
     8    4    5 2
     9    4    6 am
    10    6    7 1
    11    6   52 1
    12    7    8 1
    13    7    9 1
    14    7   12 1
    15    9   10 1
    16    9   11 1
    17    9   53 1
    18   10   54 1
    19   10   55 1
    20   10   56 1
    21   11   57 1
    22   11   58 1
    23   11   59 1
    24   12   13 2
    25   12   14 am
    26   14   18 1
    27   14   15 1
    28   15   16 1
    29   15   60 1
    30   15   61 1
    31   16   17 1
    32   16   62 1
    33   16   63 1
    34   17   18 1
    35   17   64 1
    36   17   65 1
    37   18   19 1
    38   18   20 1
    39   20   21 2
    40   20   22 am
    41   22   23 1
    42   22   66 1
    43   23   24 1
    44   23   25 1
    45   23   32 1
    46   25   26 1
    47   25   67 1
    48   25   68 1
    49   26   31 ar
    50   26   27 ar
    51   27   28 ar
    52   27   69 1
    53   28   29 ar
    54   28   70 1
    55   29   30 ar
    56   29   71 1
    57   30   31 ar
    58   30   72 1
    59   31   73 1
    60   32   33 2
    61   32   34 am
    62   34   35 1
    63   34   74 1
    64   35   36 1
    65   35   37 1
    66   35   45 1
    67   37   38 1
    68   37   75 1
    69   37   76 1
    70   38   43 ar
    71   38   39 ar
    72   39   40 ar
    73   39   77 1
    74   40   41 ar
    75   40   78 1
    76   41   42 ar
    77   41   44 1
    78   42   43 ar
    79   42   79 1
    80   43   80 1
    81   44   81 1
    82   45   46 2
    83   45   47 1
    84   48   82 1
    85   48   83 1
    86   48   84 1
@<TRIPOS>MOLECULE
CHEMBL572851
   87    90     0     0     0
SMALL
USER_CHARGES

@<TRIPOS>ATOM
      1 C1         -0.1241    1.4085    0.4673 C.3       1 <0>        -0.1718
      2 C2         -0.0621   -0.1169    0.3662 C.3       1 <0>        -0.1433
      3 C3          0.6580   -0.5137   -0.9241 C.3       1 <0>         0.0126
      4 H1          1.6372   -0.0359   -0.9554 H         1 <0>         0.1648
      5 C4          0.8279   -2.0105   -0.9646 C.2       1 <0>         0.5050
      6 O1          0.0687   -2.6894   -1.6232 O.2       1 <0>        -0.4854
      7 N1          1.8236   -2.5948   -0.2691 N.am      1 <0>        -0.6999
      8 C5          1.9884   -4.0471   -0.3084 C.3       1 <0>         0.1577
      9 H2          1.7141   -4.3918   -1.3178 H         1 <0>         0.1335
     10 C6          3.4407   -4.4353   -0.0512 C.3       1 <0>        -0.1298
     11 H3          3.4849   -5.4679    0.3048 H         1 <0>         0.1223
     12 C7          4.0850   -3.5090    0.9745 C.3       1 <0>        -0.1382
     13 C8          3.3055   -3.5062    2.2843 C.3       1 <0>        -0.1406
     14 C9          2.7182   -4.8915    2.5463 C.3       1 <0>         0.1289
     15 H4          3.3834   -5.6576    2.1433 H         1 <0>         0.0827
     16 C10         2.5558   -5.0955    4.0625 C.3       1 <0>        -0.1283
     17 C11         1.2436   -5.8918    4.1952 C.3       1 <0>        -0.1289
     18 C12         0.4401   -5.5109    2.9408 C.3       1 <0>         0.1171
     19 H5         -0.0806   -6.3884    2.5513 H         1 <0>         0.1125
     20 N2          1.3913   -5.0049    1.9354 N.am      1 <0>        -0.5812
     21 C13         1.0575   -4.6980    0.6704 C.2       1 <0>         0.5179
     22 O2         -0.0670   -4.9721    0.2948 O.2       1 <0>        -0.4942
     23 C14        -0.5644   -4.4393    3.2910 C.2       1 <0>         0.5194
     24 O3         -0.5046   -3.3534    2.7542 O.2       1 <0>        -0.5324
     25 N3         -1.5275   -4.6896    4.2000 N.am      1 <0>        -0.7165
     26 C15        -2.5021   -3.6499    4.5397 C.3       1 <0>         0.2389
     27 C16        -3.6344   -3.6787    3.5456 C.ar      1 <0>        -0.0921
     28 C17        -4.1324   -4.8888    3.1001 C.ar      1 <0>        -0.1003
     29 C18        -5.1710   -4.9152    2.1882 C.ar      1 <0>        -0.1156
     30 C19        -5.7119   -3.7315    1.7222 C.ar      1 <0>        -0.1144
     31 C20        -5.2145   -2.5214    2.1684 C.ar      1 <0>        -0.1195
     32 C21        -4.1787   -2.4950    3.0835 C.ar      1 <0>        -0.1051
     33 C22        -3.0425   -3.9009    5.9239 C.ar      1 <0>        -0.0992
     34 C23        -3.3176   -5.1917    6.3349 C.ar      1 <0>        -0.1133
     35 C24        -3.8133   -5.4219    7.6046 C.ar      1 <0>        -0.1112
     36 C25        -4.0333   -4.3614    8.4635 C.ar      1 <0>        -0.1093
     37 C26        -3.7573   -3.0706    8.0529 C.ar      1 <0>        -0.1112
     38 C27        -3.2576   -2.8408    6.7846 C.ar      1 <0>        -0.1043
     39 C28         4.2241   -4.3453   -1.3691 C.3       1 <0>        -0.0129
     40 N4          5.5919   -4.8389   -1.1604 N.4       1 <0>        -0.3864
     41 C29         5.5526   -6.2748   -0.8528 C.3       1 <0>        -0.0191
     42 C30         6.9625   -6.7624   -0.5133 C.3       1 <0>        -0.1897
     43 C31         6.3825   -4.6206   -2.3790 C.3       1 <0>        -0.0186
     44 C32         6.5442   -3.1183   -2.6198 C.3       1 <0>        -0.1869
     45 N5         -0.1359   -0.0795   -2.0813 N.4       1 <0>        -0.6230
     46 H6          0.8878    1.8134    0.4767 H         1 <0>         0.0753
     47 H7         -0.6672    1.8076   -0.3894 H         1 <0>         0.0574
     48 H8         -0.6371    1.6912    1.3865 H         1 <0>         0.0922
     49 H9          0.4810   -0.5160    1.2229 H         1 <0>         0.1171
     50 H10        -1.0740   -0.5219    0.3568 H         1 <0>         0.1014
     51 H11         2.4308   -2.0518    0.2576 H         1 <0>         0.4122
     52 H12         5.1067   -3.8576    1.1741 H         1 <0>         0.0786
     53 H13         4.1486   -2.4951    0.5788 H         1 <0>         0.0851
     54 H14         3.9791   -3.2426    3.1048 H         1 <0>         0.0995
     55 H15         2.5029   -2.7716    2.2421 H         1 <0>         0.0844
     56 H16         3.3896   -5.6711    4.4621 H         1 <0>         0.0974
     57 H17         2.4736   -4.1369    4.5716 H         1 <0>         0.0852
     58 H18         1.4469   -6.9608    4.2095 H         1 <0>         0.0967
     59 H19         0.7097   -5.5915    5.0968 H         1 <0>         0.0959
     60 H20        -1.5753   -5.5581    4.6293 H         1 <0>         0.4029
     61 H21        -2.0175   -2.6740    4.5103 H         1 <0>         0.1012
     62 H22        -3.7098   -5.8136    3.4642 H         1 <0>         0.1146
     63 H23        -5.5596   -5.8606    1.8396 H         1 <0>         0.1239
     64 H24        -6.5228   -3.7521    1.0093 H         1 <0>         0.1240
     65 H25        -5.6368   -1.5966    1.8041 H         1 <0>         0.1224
     66 H26        -3.7926   -1.5496    3.4350 H         1 <0>         0.1179
     67 H27        -3.1457   -6.0203    5.6639 H         1 <0>         0.1168
     68 H28        -4.0290   -6.4304    7.9255 H         1 <0>         0.1279
     69 H29        -4.4212   -4.5412    9.4553 H         1 <0>         0.1284
     70 H30        -3.9295   -2.2420    8.7238 H         1 <0>         0.1284
     71 H31        -3.0384   -1.8327    6.4651 H         1 <0>         0.1221
     72 H32         3.7304   -4.9528   -2.1275 H         1 <0>         0.1391
     73 H33         4.2590   -3.3076   -1.7008 H         1 <0>         0.1350
     74 H34         4.8941   -6.4462   -0.0013 H         1 <0>         0.1287
     75 H35         5.1776   -6.8216   -1.7180 H         1 <0>         0.1342
     76 H36         6.9334   -7.8279   -0.2851 H         1 <0>         0.1107
     77 H37         7.6211   -6.5911   -1.3648 H         1 <0>         0.0836
     78 H38         7.3376   -6.2157    0.3518 H         1 <0>         0.0817
     79 H39         7.3651   -5.0775   -2.2614 H         1 <0>         0.1387
     80 H40         5.8714   -5.0719   -3.2294 H         1 <0>         0.1327
     81 H41         5.5720   -2.6797   -2.8449 H         1 <0>         0.0754
     82 H42         6.9562   -2.6494   -1.7262 H         1 <0>         0.0805
     83 H43         7.2195   -2.9555   -3.4597 H         1 <0>         0.1103
     84 H44        -0.2496    0.9227   -2.0542 H         1 <0>         0.4447
     85 H45         0.3390   -0.3412   -2.9323 H         1 <0>         0.4394
     86 H46         6.0152   -4.3417   -0.3912 H         1 <0>         0.4205
     87 H47        -1.0423   -0.5218   -2.0524 H         1 <0>         0.4457
@<TRIPOS>BOND
     1    1    2 1
     2    1   46 1
     3    1   47 1
     4    1   48 1
     5    2    3 1
     6    2   49 1
     7    2   50 1
     8    3    4 1
     9    3    5 1
    10    3   45 1
    11    5    6 2
    12    5    7 am
    13    7    8 1
    14    7   51 1
    15    8    9 1
    16    8   21 1
    17    8   10 1
    18   10   11 1
    19   10   12 1
    20   10   39 1
    21   12   13 1
    22   12   52 1
    23   12   53 1
    24   13   14 1
    25   13   54 1
    26   13   55 1
    27   14   15 1
    28   14   20 1
    29   14   16 1
    30   16   17 1
    31   16   56 1
    32   16   57 1
    33   17   18 1
    34   17   58 1
    35   17   59 1
    36   18   19 1
    37   18   20 1
    38   18   23 1
    39   20   21 am
    40   21   22 2
    41   23   24 2
    42   23   25 am
    43   25   26 1
    44   25   60 1
    45   26   27 1
    46   26   33 1
    47   26   61 1
    48   27   32 ar
    49   27   28 ar
    50   28   29 ar
    51   28   62 1
    52   29   30 ar
    53   29   63 1
    54   30   31 ar
    55   30   64 1
    56   31   32 ar
    57   31   65 1
    58   32   66 1
    59   33   38 ar
    60   33   34 ar
    61   34   35 ar
    62   34   67 1
    63   35   36 ar
    64   35   68 1
    65   36   37 ar
    66   36   69 1
    67   37   38 ar
    68   37   70 1
    69   38   71 1
    70   39   40 1
    71   39   72 1
    72   39   73 1
    73   40   41 1
    74   40   43 1
    75   40   86 1
    76   41   42 1
    77   41   74 1
    78   41   75 1
    79   42   76 1
    80   42   77 1
    81   42   78 1
    82   43   44 1
    83   43   79 1
    84   43   80 1
    85   44   81 1
    86   44   82 1
    87   44   83 1
    88   45   84 1
    89   45   85 1
    90   45   87 1
@<TRIPOS>MOLECULE
CHEMBL189071
   67    68     0     0     0
SMALL
USER_CHARGES

@<TRIPOS>ATOM
      1 C1         -0.4947    2.2614    2.0588 C.3       1 <0>        -0.1825
      2 C2         -0.5051    0.9159    1.3306 C.3       1 <0>         0.0048
      3 H1         -0.2551    1.0690    0.2807 H         1 <0>         0.1671
      4 C3          0.5097   -0.0036    1.9597 C.2       1 <0>         0.5050
      5 O1          0.1548   -1.0567    2.4456 O.2       1 <0>        -0.5197
      6 N1          1.8116    0.3442    1.9824 N.am      1 <0>        -0.6833
      7 C4          2.7981   -0.5497    2.5940 C.3       1 <0>         0.1417
      8 H2          2.3507   -1.0520    3.4516 H         1 <0>         0.1134
      9 C5          3.9902    0.2530    3.0475 C.2       1 <0>         0.5375
     10 O2          4.4275    1.1392    2.3445 O.2       1 <0>        -0.5088
     11 N2          4.5703   -0.0140    4.2344 N.am      1 <0>        -0.5953
     12 C6          4.1961   -1.1103    5.1463 C.3       1 <0>         0.0871
     13 C7          5.4694   -1.3791    5.9867 C.3       1 <0>        -0.1334
     14 C8          6.0281    0.0563    6.1735 C.3       1 <0>        -0.1261
     15 C9          5.6853    0.7358    4.8311 C.3       1 <0>         0.1193
     16 H3          5.3854    1.7689    5.0067 H         1 <0>         0.1045
     17 C10         6.8798    0.6948    3.9132 C.2       1 <0>         0.5067
     18 O3          6.8145    0.0984    2.8592 O.2       1 <0>        -0.5133
     19 N3          8.0207    1.3210    4.2636 N.am      1 <0>        -0.7306
     20 C11         9.1819    1.2812    3.3713 C.3       1 <0>         0.1279
     21 C12        10.3360    2.0638    4.0010 C.3       1 <0>        -0.0903
     22 C13        11.5305    2.0229    3.0831 C.ar      1 <0>        -0.0877
     23 C14        12.4568    1.0034    3.1993 C.ar      1 <0>        -0.1138
     24 C15        13.5526    0.9658    2.3574 C.ar      1 <0>        -0.1172
     25 C16        13.7217    1.9475    1.3990 C.ar      1 <0>        -0.1184
     26 C17        12.7950    2.9665    1.2822 C.ar      1 <0>        -0.1174
     27 C18        11.6970    3.0017    2.1213 C.ar      1 <0>        -0.1141
     28 C19         3.2460   -1.5929    1.5684 C.3       1 <0>        -0.0675
     29 C20         3.7589   -0.8858    0.3122 C.3       1 <0>        -0.1473
     30 C21         4.3657   -2.4474    2.1658 C.3       1 <0>        -0.1571
     31 C22         2.0612   -2.4888    1.2015 C.3       1 <0>        -0.1312
     32 N4         -1.8412    0.3140    1.4331 N.4       1 <0>        -0.4940
     33 C23        -2.8119    1.1515    0.7159 C.3       1 <0>        -0.0502
     34 H4          0.4967    2.7080    1.9827 H         1 <0>         0.1108
     35 H5         -1.2286    2.9265    1.6037 H         1 <0>         0.0998
     36 H6         -0.7447    2.1084    3.1086 H         1 <0>         0.0905
     37 H7          2.0954    1.1864    1.5938 H         1 <0>         0.4172
     38 H8          3.3735   -0.8026    5.7919 H         1 <0>         0.0779
     39 H9          3.9217   -1.9992    4.5784 H         1 <0>         0.0865
     40 H10         5.2160   -1.8278    6.9472 H         1 <0>         0.0962
     41 H11         6.1742   -2.0045    5.4388 H         1 <0>         0.0824
     42 H12         5.5302    0.5590    7.0026 H         1 <0>         0.0942
     43 H13         7.1070    0.0332    6.3270 H         1 <0>         0.0919
     44 H14         8.0729    1.7980    5.1066 H         1 <0>         0.4005
     45 H15         9.4864    0.2460    3.2172 H         1 <0>         0.0700
     46 H16         8.9193    1.7292    2.4130 H         1 <0>         0.0699
     47 H17        10.0316    3.0990    4.1552 H         1 <0>         0.0798
     48 H18        10.5987    1.6158    4.9593 H         1 <0>         0.0803
     49 H19        12.3246    0.2364    3.9481 H         1 <0>         0.1217
     50 H20        14.2766    0.1697    2.4486 H         1 <0>         0.1241
     51 H21        14.5782    1.9186    0.7416 H         1 <0>         0.1237
     52 H22        12.9273    3.7337    0.5336 H         1 <0>         0.1237
     53 H23        10.9710    3.7957    2.0276 H         1 <0>         0.1212
     54 H24         4.6029   -0.2476    0.5736 H         1 <0>         0.0771
     55 H25         4.0779   -1.6290   -0.4184 H         1 <0>         0.0616
     56 H26         2.9611   -0.2770   -0.1133 H         1 <0>         0.0476
     57 H27         4.0102   -2.9259    3.0783 H         1 <0>         0.0585
     58 H28         4.6628   -3.2112    1.4470 H         1 <0>         0.0690
     59 H29         5.2219   -1.8139    2.3975 H         1 <0>         0.0768
     60 H30         1.2635   -1.8801    0.7759 H         1 <0>         0.0459
     61 H31         2.3803   -3.2321    0.4708 H         1 <0>         0.0610
     62 H32         1.6958   -2.9926    2.0963 H         1 <0>         0.0641
     63 H33        -1.8267   -0.6086    1.0249 H         1 <0>         0.4377
     64 H34        -2.8276    2.1482    1.1569 H         1 <0>         0.1273
     65 H35        -2.5250    1.2229   -0.3333 H         1 <0>         0.1267
     66 H36        -3.8033    0.7049    0.7919 H         1 <0>         0.1336
     67 H37        -2.1067    0.2479    2.4042 H         1 <0>         0.4347
@<TRIPOS>BOND
     1    1    2 1
     2    1   34 1
     3    1   35 1
     4    1   36 1
     5    2    3 1
     6    2    4 1
     7    2   32 1
     8    4    5 2
     9    4    6 am
    10    6    7 1
    11    6   37 1
    12    7    8 1
    13    7    9 1
    14    7   28 1
    15    9   10 2
    16    9   11 am
    17   11   15 1
    18   11   12 1
    19   12   13 1
    20   12   38 1
    21   12   39 1
    22   13   14 1
    23   13   40 1
    24   13   41 1
    25   14   15 1
    26   14   42 1
    27   14   43 1
    28   15   16 1
    29   15   17 1
    30   17   18 2
    31   17   19 am
    32   19   20 1
    33   19   44 1
    34   20   21 1
    35   20   45 1
    36   20   46 1
    37   21   22 1
    38   21   47 1
    39   21   48 1
    40   22   27 ar
    41   22   23 ar
    42   23   24 ar
    43   23   49 1
    44   24   25 ar
    45   24   50 1
    46   25   26 ar
    47   25   51 1
    48   26   27 ar
    49   26   52 1
    50   27   53 1
    51   28   29 1
    52   28   30 1
    53   28   31 1
    54   29   54 1
    55   29   55 1
    56   29   56 1
    57   30   57 1
    58   30   58 1
    59   30   59 1
    60   31   60 1
    61   31   61 1
    62   31   62 1
    63   32   33 1
    64   32   63 1
    65   32   67 1
    66   33   64 1
    67   33   65 1
    68   33   66 1
@<TRIPOS>MOLECULE
CHEMBL487964
   69    72     0     0     0
SMALL
USER_CHARGES

@<TRIPOS>ATOM
      1 C1         -0.0187    1.5258    0.0104 C.3       1 <0>        -0.1764
      2 C2          0.0021   -0.0041    0.0020 C.3       1 <0>         0.0095
      3 H1         -1.0205   -0.3814    0.0098 H         1 <0>         0.1636
      4 C3          0.7074   -0.4901   -1.2379 C.2       1 <0>         0.5150
      5 O1          1.7039   -1.1744   -1.1398 O.2       1 <0>        -0.4894
      6 N1          0.2309   -0.1642   -2.4557 N.am      1 <0>        -0.6961
      7 C4          0.9166   -0.6366   -3.6610 C.3       1 <0>         0.1470
      8 H2          1.3147   -1.6414   -3.4438 H         1 <0>         0.1231
      9 C5         -0.0798   -0.7617   -4.8077 C.3       1 <0>        -0.1285
     10 C6          0.3497    0.0463   -6.0243 C.3       1 <0>        -0.1339
     11 C7         -0.5079    1.3049   -6.0621 C.3       1 <0>        -0.1264
     12 C8         -0.2980    2.1357   -4.8025 C.3       1 <0>        -0.1253
     13 C9          1.1515    2.5729   -4.6914 C.3       1 <0>         0.1492
     14 H3          1.5300    2.8389   -5.6876 H         1 <0>         0.0814
     15 C10         1.2318    3.8222   -3.7797 C.3       1 <0>        -0.1299
     16 C11         2.7443    3.8662   -3.4601 C.3       1 <0>        -0.1293
     17 C12         3.1728    2.3895   -3.5038 C.3       1 <0>         0.1119
     18 H4          4.0574    2.2793   -4.1308 H         1 <0>         0.1019
     19 N2          2.0517    1.5970   -4.0877 N.am      1 <0>        -0.6196
     20 C13         2.0603    0.2633   -3.9854 C.2       1 <0>         0.5660
     21 O2          3.1375   -0.2889   -4.2035 O.2       1 <0>        -0.5150
     22 C14         3.4731    1.9108   -2.1055 C.2       1 <0>         0.5209
     23 O3          2.8268    1.0052   -1.6226 O.2       1 <0>        -0.5259
     24 N3          4.4598    2.4893   -1.3925 N.am      1 <0>        -0.7186
     25 C15         4.7515    2.0242   -0.0342 C.3       1 <0>         0.2453
     26 C16         5.6860    0.8436   -0.0973 C.ar      1 <0>        -0.0944
     27 C17         6.7290    0.8354   -1.0045 C.ar      1 <0>        -0.0989
     28 C18         7.5862   -0.2475   -1.0624 C.ar      1 <0>        -0.1129
     29 C19         7.4006   -1.3221   -0.2128 C.ar      1 <0>        -0.1120
     30 C20         6.3582   -1.3135    0.6950 C.ar      1 <0>        -0.1164
     31 C21         5.5036   -0.2287    0.7558 C.ar      1 <0>        -0.1042
     32 C22         5.3996    3.1365    0.7492 C.ar      1 <0>        -0.0973
     33 C23         6.3317    3.9574    0.1423 C.ar      1 <0>        -0.1105
     34 C24         6.9262    4.9777    0.8609 C.ar      1 <0>        -0.1090
     35 C25         6.5883    5.1774    2.1863 C.ar      1 <0>        -0.1105
     36 C26         5.6556    4.3572    2.7930 C.ar      1 <0>        -0.1128
     37 C27         5.0579    3.3396    2.0732 C.ar      1 <0>        -0.1076
     38 N4          0.7126   -0.4907    1.1921 N.4       1 <0>        -0.6201
     39 H5          1.0039    1.9031    0.0027 H         1 <0>         0.0915
     40 H6         -0.5459    1.8868   -0.8726 H         1 <0>         0.1055
     41 H7         -0.5289    1.8773    0.9072 H         1 <0>         0.0935
     42 H8         -0.5660    0.3831   -2.5342 H         1 <0>         0.4021
     43 H9         -0.1811   -1.8121   -5.0893 H         1 <0>         0.0880
     44 H10        -1.0588   -0.4011   -4.4723 H         1 <0>         0.0831
     45 H11         1.3982    0.3190   -5.9711 H         1 <0>         0.0731
     46 H12         0.1774   -0.5377   -6.9312 H         1 <0>         0.0802
     47 H13        -0.2652    1.8920   -6.9422 H         1 <0>         0.0741
     48 H14        -1.5574    1.0046   -6.1126 H         1 <0>         0.0707
     49 H15        -0.9367    3.0256   -4.8564 H         1 <0>         0.0865
     50 H16        -0.5909    1.5603   -3.9291 H         1 <0>         0.0615
     51 H17         0.9243    4.7148   -4.3227 H         1 <0>         0.0938
     52 H18         0.6449    3.6819   -2.8762 H         1 <0>         0.0748
     53 H19         3.2739    4.4342   -4.2246 H         1 <0>         0.0927
     54 H20         2.9165    4.2921   -2.4743 H         1 <0>         0.0853
     55 H21         4.9767    3.2135   -1.7786 H         1 <0>         0.4037
     56 H22         3.8239    1.7276    0.4554 H         1 <0>         0.0908
     57 H23         6.8740    1.6749   -1.6683 H         1 <0>         0.1146
     58 H24         8.4006   -0.2542   -1.7717 H         1 <0>         0.1242
     59 H25         8.0699   -2.1685   -0.2586 H         1 <0>         0.1244
     60 H26         6.2130   -2.1532    1.3585 H         1 <0>         0.1222
     61 H27         4.6913   -0.2203    1.4676 H         1 <0>         0.1099
     62 H28         6.5957    3.8013   -0.8933 H         1 <0>         0.1188
     63 H29         7.6549    5.6185    0.3869 H         1 <0>         0.1281
     64 H30         7.0533    5.9741    2.7480 H         1 <0>         0.1275
     65 H31         5.3919    4.5130    3.8287 H         1 <0>         0.1266
     66 H32         4.3265    2.7010    2.5461 H         1 <0>         0.1176
     67 H33         0.2403   -0.1653    2.0223 H         1 <0>         0.4398
     68 H34         0.7262   -1.4996    1.1866 H         1 <0>         0.4418
     69 H35         1.6592   -0.1414    1.1850 H         1 <0>         0.4397
@<TRIPOS>BOND
     1    1    2 1
     2    1   39 1
     3    1   40 1
     4    1   41 1
     5    2    3 1
     6    2    4 1
     7    2   38 1
     8    4    5 2
     9    4    6 am
    10    6    7 1
    11    6   42 1
    12    7    8 1
    13    7   20 1
    14    7    9 1
    15    9   10 1
    16    9   43 1
    17    9   44 1
    18   10   11 1
    19   10   45 1
    20   10   46 1
    21   11   12 1
    22   11   47 1
    23   11   48 1
    24   12   13 1
    25   12   49 1
    26   12   50 1
    27   13   14 1
    28   13   19 1
    29   13   15 1
    30   15   16 1
    31   15   51 1
    32   15   52 1
    33   16   17 1
    34   16   53 1
    35   16   54 1
    36   17   18 1
    37   17   19 1
    38   17   22 1
    39   19   20 am
    40   20   21 2
    41   22   23 2
    42   22   24 am
    43   24   25 1
    44   24   55 1
    45   25   26 1
    46   25   32 1
    47   25   56 1
    48   26   31 ar
    49   26   27 ar
    50   27   28 ar
    51   27   57 1
    52   28   29 ar
    53   28   58 1
    54   29   30 ar
    55   29   59 1
    56   30   31 ar
    57   30   60 1
    58   31   61 1
    59   32   37 ar
    60   32   33 ar
    61   33   34 ar
    62   33   62 1
    63   34   35 ar
    64   34   63 1
    65   35   36 ar
    66   35   64 1
    67   36   37 ar
    68   36   65 1
    69   37   66 1
    70   38   67 1
    71   38   68 1
    72   38   69 1
@<TRIPOS>MOLECULE
CHEMBL574027
   78    81     0     0     0
SMALL
USER_CHARGES

@<TRIPOS>ATOM
      1 C1         -0.0187    1.5258    0.0104 C.3       1 <0>        -0.1714
      2 C2          0.0021   -0.0041    0.0020 C.3       1 <0>        -0.1433
      3 C3         -1.4333   -0.5336    0.0129 C.3       1 <0>         0.0121
      4 H1         -1.9862   -0.1019   -0.8214 H         1 <0>         0.1636
      5 C4         -1.4159   -2.0348   -0.1192 C.2       1 <0>         0.5033
      6 O1         -1.5501   -2.7316    0.8643 O.2       1 <0>        -0.4908
      7 N1         -1.2512   -2.6028   -1.3302 N.am      1 <0>        -0.6954
      8 C5         -1.2344   -4.0592   -1.4584 C.3       1 <0>         0.1521
      9 H2         -1.9415   -4.4722   -0.7218 H         1 <0>         0.1276
     10 C6         -1.6918   -4.4868   -2.8490 C.3       1 <0>        -0.0977
     11 H3         -1.3116   -5.4883   -3.0665 H         1 <0>         0.1124
     12 C7         -1.2059   -3.5091   -3.9135 C.3       1 <0>        -0.1301
     13 C8          0.3115   -3.3677   -3.8835 C.3       1 <0>        -0.1425
     14 C9          0.9536   -4.7013   -3.5066 C.3       1 <0>         0.1301
     15 H4          0.3468   -5.5249   -3.8879 H         1 <0>         0.0861
     16 C10         2.3644   -4.7755   -4.1157 C.3       1 <0>        -0.1285
     17 C11         3.1981   -5.5021   -3.0430 C.3       1 <0>        -0.1280
     18 C12         2.4736   -5.1897   -1.7234 C.3       1 <0>         0.1167
     19 H5          2.4728   -6.0728   -1.0808 H         1 <0>         0.1118
     20 N2          1.0888   -4.8071   -2.0515 N.am      1 <0>        -0.5804
     21 C13         0.1305   -4.5892   -1.1350 C.2       1 <0>         0.5178
     22 O2          0.3843   -4.8447    0.0273 O.2       1 <0>        -0.5044
     23 C14         3.1740   -4.0517   -1.0202 C.2       1 <0>         0.5198
     24 O3          2.5812   -3.0160   -0.8035 O.2       1 <0>        -0.5323
     25 N3          4.4579   -4.1869   -0.6333 N.am      1 <0>        -0.7170
     26 C15         5.1375   -3.0828    0.0490 C.3       1 <0>         0.2381
     27 C16         6.2597   -3.6289    0.8936 C.ar      1 <0>        -0.0988
     28 C17         7.0508   -4.6553    0.4122 C.ar      1 <0>        -0.1124
     29 C18         8.0802   -5.1562    1.1869 C.ar      1 <0>        -0.1115
     30 C19         8.3189   -4.6305    2.4429 C.ar      1 <0>        -0.1096
     31 C20         7.5284   -3.6036    2.9240 C.ar      1 <0>        -0.1117
     32 C21         6.5017   -3.0997    2.1475 C.ar      1 <0>        -0.1044
     33 C22         5.6974   -2.1286   -0.9742 C.ar      1 <0>        -0.0905
     34 C23         6.2767   -2.6168   -2.1305 C.ar      1 <0>        -0.1044
     35 C24         6.7903   -1.7414   -3.0690 C.ar      1 <0>        -0.1169
     36 C25         6.7241   -0.3779   -2.8516 C.ar      1 <0>        -0.1149
     37 C26         6.1440    0.1103   -1.6957 C.ar      1 <0>        -0.1166
     38 C27         5.6266   -0.7649   -0.7591 C.ar      1 <0>        -0.1043
     39 C28        -3.2266   -4.5365   -2.8781 C.3       1 <0>        -0.1510
     40 C29        -3.6936   -5.0835   -4.2285 C.3       1 <0>        -0.0140
     41 N4         -5.1616   -5.1310   -4.2563 N.4       1 <0>        -0.6385
     42 N5         -2.0833   -0.1607    1.2764 N.4       1 <0>        -0.6225
     43 H6          1.0039    1.9031    0.0027 H         1 <0>         0.0919
     44 H7         -0.5459    1.8868   -0.8726 H         1 <0>         0.0750
     45 H8         -0.5289    1.8773    0.9072 H         1 <0>         0.0568
     46 H9          0.5123   -0.3556   -0.8948 H         1 <0>         0.1176
     47 H10         0.5293   -0.3651    0.8851 H         1 <0>         0.1005
     48 H11        -1.1439   -2.0455   -2.1168 H         1 <0>         0.4114
     49 H12        -1.5046   -3.8835   -4.9012 H         1 <0>         0.0832
     50 H13        -1.6718   -2.5339   -3.7701 H         1 <0>         0.0740
     51 H14         0.6658   -3.0677   -4.8738 H         1 <0>         0.0935
     52 H15         0.6036   -2.6055   -3.1628 H         1 <0>         0.0785
     53 H16         2.3519   -5.3518   -5.0397 H         1 <0>         0.0961
     54 H17         2.7583   -3.7764   -4.2932 H         1 <0>         0.0837
     55 H18         3.2075   -6.5741   -3.2300 H         1 <0>         0.0962
     56 H19         4.2141   -5.1078   -3.0239 H         1 <0>         0.0928
     57 H20         4.9321   -5.0152   -0.8065 H         1 <0>         0.4027
     58 H21         4.4264   -2.5566    0.6858 H         1 <0>         0.0998
     59 H22         6.8643   -5.0660   -0.5691 H         1 <0>         0.1171
     60 H23         8.6978   -5.9585    0.8110 H         1 <0>         0.1279
     61 H24         9.1227   -5.0224    3.0485 H         1 <0>         0.1282
     62 H25         7.7147   -3.1931    3.9054 H         1 <0>         0.1280
     63 H26         5.8865   -2.2949    2.5219 H         1 <0>         0.1214
     64 H27         6.3284   -3.6821   -2.3004 H         1 <0>         0.1148
     65 H28         7.2435   -2.1229   -3.9721 H         1 <0>         0.1240
     66 H29         7.1260    0.3059   -3.5846 H         1 <0>         0.1244
     67 H30         6.0926    1.1756   -1.5257 H         1 <0>         0.1234
     68 H31         5.1700   -0.3833    0.1422 H         1 <0>         0.1177
     69 H32        -3.5843   -5.1863   -2.0794 H         1 <0>         0.0977
     70 H33        -3.6254   -3.5321   -2.7354 H         1 <0>         0.0911
     71 H34        -3.3359   -4.4337   -5.0271 H         1 <0>         0.1388
     72 H35        -3.2948   -6.0879   -4.3712 H         1 <0>         0.1397
     73 H36        -5.4927   -5.7326   -3.5170 H         1 <0>         0.4377
     74 H37        -5.5308   -4.2013   -4.1242 H         1 <0>         0.4349
     75 H38        -1.5715   -0.5604    2.0487 H         1 <0>         0.4453
     76 H39        -2.0949    0.8443    1.3648 H         1 <0>         0.4438
     77 H40        -5.4696   -5.4918   -5.1468 H         1 <0>         0.4438
     78 H41        -3.0299   -0.5100    1.2835 H         1 <0>         0.4387
@<TRIPOS>BOND
     1    1    2 1
     2    1   43 1
     3    1   44 1
     4    1   45 1
     5    2    3 1
     6    2   46 1
     7    2   47 1
     8    3    4 1
     9    3    5 1
    10    3   42 1
    11    5    6 2
    12    5    7 am
    13    7    8 1
    14    7   48 1
    15    8    9 1
    16    8   21 1
    17    8   10 1
    18   10   11 1
    19   10   12 1
    20   10   39 1
    21   12   13 1
    22   12   49 1
    23   12   50 1
    24   13   14 1
    25   13   51 1
    26   13   52 1
    27   14   15 1
    28   14   20 1
    29   14   16 1
    30   16   17 1
    31   16   53 1
    32   16   54 1
    33   17   18 1
    34   17   55 1
    35   17   56 1
    36   18   19 1
    37   18   20 1
    38   18   23 1
    39   20   21 am
    40   21   22 2
    41   23   24 2
    42   23   25 am
    43   25   26 1
    44   25   57 1
    45   26   27 1
    46   26   33 1
    47   26   58 1
    48   27   32 ar
    49   27   28 ar
    50   28   29 ar
    51   28   59 1
    52   29   30 ar
    53   29   60 1
    54   30   31 ar
    55   30   61 1
    56   31   32 ar
    57   31   62 1
    58   32   63 1
    59   33   38 ar
    60   33   34 ar
    61   34   35 ar
    62   34   64 1
    63   35   36 ar
    64   35   65 1
    65   36   37 ar
    66   36   66 1
    67   37   38 ar
    68   37   67 1
    69   38   68 1
    70   39   40 1
    71   39   69 1
    72   39   70 1
    73   40   41 1
    74   40   71 1
    75   40   72 1
    76   41   73 1
    77   41   74 1
    78   41   77 1
    79   42   75 1
    80   42   76 1
    81   42   78 1
@<TRIPOS>MOLECULE
CHEMBL481421
   69    72     0     0     0
SMALL
USER_CHARGES

@<TRIPOS>ATOM
      1 C1          0.7797   -0.4283   -0.2332 C.3       1 <0>        -0.1674
      2 C2          0.6245   -1.7963   -0.9006 C.3       1 <0>         0.0076
      3 H1         -0.4142   -1.9394   -1.1985 H         1 <0>         0.1569
      4 C3          1.5102   -1.8648   -2.1179 C.2       1 <0>         0.5183
      5 O1          2.5939   -2.4050   -2.0496 O.2       1 <0>        -0.5135
      6 N1          1.0981   -1.3258   -3.2824 N.am      1 <0>        -0.6884
      7 C4          1.9103   -1.4846   -4.4911 C.3       1 <0>         0.1386
      8 H2          2.5807   -2.3447   -4.3296 H         1 <0>         0.1301
      9 C5          1.0117   -1.8037   -5.6802 C.3       1 <0>        -0.1288
     10 C6          1.2058   -0.8142   -6.8207 C.3       1 <0>        -0.1344
     11 C7          0.0191    0.1411   -6.8029 C.3       1 <0>        -0.1264
     12 C8         -0.0420    0.8969   -5.4816 C.3       1 <0>        -0.1251
     13 C9          1.2152    1.7251   -5.2861 C.3       1 <0>         0.1487
     14 H3          1.5151    2.1657   -6.2466 H         1 <0>         0.0832
     15 C10         0.9135    2.8696   -4.2874 C.3       1 <0>        -0.1296
     16 C11         2.3423    3.3249   -3.9091 C.3       1 <0>        -0.1238
     17 C12         3.1834    2.0435   -4.0394 C.3       1 <0>         0.1120
     18 H4          4.0714    2.2431   -4.6390 H         1 <0>         0.0974
     19 N2          2.3514    1.0081   -4.7185 N.am      1 <0>        -0.6158
     20 C13         2.7468   -0.2698   -4.7090 C.2       1 <0>         0.5578
     21 O2          3.9415   -0.4677   -4.9246 O.2       1 <0>        -0.5174
     22 C14         3.5885    1.5655   -2.6675 C.2       1 <0>         0.5217
     23 O3          2.9027    0.7555   -2.0805 O.2       1 <0>        -0.5385
     24 N3          4.7127    2.0383   -2.0938 N.am      1 <0>        -0.7147
     25 C15         5.1626    1.4975   -0.8088 C.3       1 <0>         0.1944
     26 H5          4.8297    0.4636   -0.7177 H         1 <0>         0.0967
     27 C16         6.6882    1.5424   -0.7499 C.3       1 <0>        -0.1300
     28 C17         7.1281    1.1804    0.6736 C.3       1 <0>        -0.1140
     29 C18         6.7378    2.3268    1.6043 C.3       1 <0>        -0.0882
     30 C19         5.2874    2.6888    1.4191 C.ar      1 <0>        -0.0629
     31 C20         4.5658    2.3117    0.3091 C.ar      1 <0>        -0.0988
     32 C21         3.2329    2.6848    0.1971 C.ar      1 <0>        -0.1074
     33 C22         2.6266    3.4269    1.1898 C.ar      1 <0>        -0.1303
     34 C23         3.3510    3.8024    2.3055 C.ar      1 <0>        -0.1114
     35 C24         4.6742    3.4335    2.4180 C.ar      1 <0>        -0.1222
     36 N4          1.0118   -2.8500    0.0468 N.4       1 <0>        -0.4956
     37 C25         0.0742   -2.8606    1.1776 C.3       1 <0>        -0.0491
     38 H6          1.7953   -0.3234    0.1485 H         1 <0>         0.0929
     39 H7          0.5833    0.3567   -0.9636 H         1 <0>         0.1112
     40 H8          0.0713   -0.3435    0.5908 H         1 <0>         0.0894
     41 H9          0.2636   -0.8328   -3.3202 H         1 <0>         0.4055
     42 H10         1.2254   -2.8133   -6.0378 H         1 <0>         0.0875
     43 H11        -0.0350   -1.7691   -5.3574 H         1 <0>         0.0839
     44 H12         2.1282   -0.2546   -6.7095 H         1 <0>         0.0730
     45 H13         1.2254   -1.3510   -7.7718 H         1 <0>         0.0806
     46 H14         0.0938    0.8396   -7.6303 H         1 <0>         0.0748
     47 H15        -0.8963   -0.4454   -6.9134 H         1 <0>         0.0708
     48 H16        -0.9114    1.5651   -5.4973 H         1 <0>         0.0881
     49 H17        -0.1678    0.1955   -4.6619 H         1 <0>         0.0603
     50 H18         0.3676    3.6742   -4.7781 H         1 <0>         0.0938
     51 H19         0.3791    2.4958   -3.4184 H         1 <0>         0.0778
     52 H20         2.6951    4.0793   -4.6119 H         1 <0>         0.0926
     53 H21         2.3675    3.7046   -2.8904 H         1 <0>         0.0846
     54 H22         5.2239    2.7367   -2.5318 H         1 <0>         0.4050
     55 H23         7.1041    0.8242   -1.4565 H         1 <0>         0.0769
     56 H24         7.0357    2.5453   -0.9977 H         1 <0>         0.0747
     57 H25         6.6293    0.2644    0.9902 H         1 <0>         0.0663
     58 H26         8.2085    1.0384    0.6990 H         1 <0>         0.0784
     59 H27         6.9033    2.0230    2.6379 H         1 <0>         0.0792
     60 H28         7.3564    3.1964    1.3824 H         1 <0>         0.0814
     61 H29         2.6662    2.3919   -0.6744 H         1 <0>         0.1227
     62 H30         1.5895    3.7132    1.0956 H         1 <0>         0.1183
     63 H31         2.8816    4.3821    3.0865 H         1 <0>         0.1229
     64 H32         5.2393    3.7277    3.2901 H         1 <0>         0.1233
     65 H33         0.9883   -3.7453   -0.4179 H         1 <0>         0.4328
     66 H34         0.3616   -3.6425    1.8806 H         1 <0>         0.1320
     67 H35         0.0995   -1.8934    1.6797 H         1 <0>         0.1269
     68 H36        -0.9342   -3.0537    0.8117 H         1 <0>         0.1256
     69 H37         1.9453   -2.6713    0.3855 H         1 <0>         0.4371
@<TRIPOS>BOND
     1    1    2 1
     2    1   38 1
     3    1   39 1
     4    1   40 1
     5    2    3 1
     6    2    4 1
     7    2   36 1
     8    4    5 2
     9    4    6 am
    10    6    7 1
    11    6   41 1
    12    7    8 1
    13    7   20 1
    14    7    9 1
    15    9   10 1
    16    9   42 1
    17    9   43 1
    18   10   11 1
    19   10   44 1
    20   10   45 1
    21   11   12 1
    22   11   46 1
    23   11   47 1
    24   12   13 1
    25   12   48 1
    26   12   49 1
    27   13   14 1
    28   13   19 1
    29   13   15 1
    30   15   16 1
    31   15   50 1
    32   15   51 1
    33   16   17 1
    34   16   52 1
    35   16   53 1
    36   17   18 1
    37   17   19 1
    38   17   22 1
    39   19   20 am
    40   20   21 2
    41   22   23 2
    42   22   24 am
    43   24   25 1
    44   24   54 1
    45   25   26 1
    46   25   31 1
    47   25   27 1
    48   27   28 1
    49   27   55 1
    50   27   56 1
    51   28   29 1
    52   28   57 1
    53   28   58 1
    54   29   30 1
    55   29   59 1
    56   29   60 1
    57   30   35 ar
    58   30   31 ar
    59   31   32 ar
    60   32   33 ar
    61   32   61 1
    62   33   34 ar
    63   33   62 1
    64   34   35 ar
    65   34   63 1
    66   35   64 1
    67   36   37 1
    68   36   65 1
    69   36   69 1
    70   37   66 1
    71   37   67 1
    72   37   68 1
@<TRIPOS>MOLECULE
CHEMBL181479
   71    73     0     0     0
SMALL
USER_CHARGES

@<TRIPOS>ATOM
      1 C1         -2.9589   -0.8771    0.4988 C.3       1 <0>        -0.1725
      2 C2         -2.0316   -2.0582    0.2054 C.3       1 <0>        -0.1446
      3 C3         -1.0232   -1.6590   -0.8738 C.3       1 <0>         0.0102
      4 H1         -0.4945   -0.7583   -0.5618 H         1 <0>         0.1671
      5 C4         -0.0339   -2.7778   -1.0755 C.2       1 <0>         0.5045
      6 O1         -0.1635   -3.5409   -2.0092 O.2       1 <0>        -0.5219
      7 N1          0.9948   -2.9304   -0.2183 N.am      1 <0>        -0.6842
      8 C5          1.9565   -4.0180   -0.4143 C.3       1 <0>         0.1340
      9 H2          1.4404   -4.8923   -0.8111 H         1 <0>         0.1139
     10 C6          3.0368   -3.5718   -1.4016 C.3       1 <0>        -0.0908
     11 C7          3.8092   -2.3898   -0.8125 C.3       1 <0>        -0.1548
     12 C8          4.0001   -4.7316   -1.6621 C.3       1 <0>        -0.1620
     13 C9          2.5952   -4.3677    0.9051 C.2       1 <0>         0.5413
     14 O2          2.8018   -3.5006    1.7275 O.2       1 <0>        -0.5129
     15 N2          2.9369   -5.6440    1.1711 N.am      1 <0>        -0.5941
     16 C10         2.6520   -6.8069    0.3110 C.3       1 <0>         0.0849
     17 C11         3.7253   -7.8561    0.6942 C.3       1 <0>        -0.1331
     18 C12         3.8477   -7.6317    2.2246 C.3       1 <0>        -0.1273
     19 C13         3.6612   -6.1062    2.3642 C.3       1 <0>         0.1197
     20 H3          3.0795   -5.8862    3.2593 H         1 <0>         0.1054
     21 C14         5.0047   -5.4281    2.4429 C.2       1 <0>         0.5131
     22 O3          5.3337   -4.6331    1.5882 O.2       1 <0>        -0.5117
     23 N3          5.8405   -5.7050    3.4633 N.am      1 <0>        -0.7206
     24 C15         7.1466   -5.0458    3.5399 C.3       1 <0>         0.2350
     25 C16         6.9951   -3.7081    4.2171 C.ar      1 <0>        -0.0893
     26 C17         6.1574   -3.5771    5.3089 C.ar      1 <0>        -0.1012
     27 C18         6.0185   -2.3500    5.9302 C.ar      1 <0>        -0.1196
     28 C19         6.7176   -1.2541    5.4599 C.ar      1 <0>        -0.1167
     29 C20         7.5560   -1.3854    4.3687 C.ar      1 <0>        -0.1173
     30 C21         7.6982   -2.6134    3.7501 C.ar      1 <0>        -0.1010
     31 C22         8.0974   -5.9053    4.3325 C.ar      1 <0>        -0.0925
     32 C23         7.6520   -6.5709    5.4592 C.ar      1 <0>        -0.1126
     33 C24         8.5242   -7.3593    6.1862 C.ar      1 <0>        -0.1136
     34 C25         9.8417   -7.4825    5.7862 C.ar      1 <0>        -0.1133
     35 C26        10.2869   -6.8176    4.6590 C.ar      1 <0>        -0.1125
     36 C27         9.4136   -6.0326    3.9295 C.ar      1 <0>        -0.1039
     37 N4         -1.7319   -1.3989   -2.1340 N.4       1 <0>        -0.6208
     38 H4         -2.3688   -0.0300    0.8484 H         1 <0>         0.0770
     39 H5         -3.4912   -0.5985   -0.4106 H         1 <0>         0.0565
     40 H6         -3.6773   -1.1615    1.2676 H         1 <0>         0.0901
     41 H7         -1.4992   -2.3368    1.1148 H         1 <0>         0.1169
     42 H8         -2.6217   -2.9053   -0.1442 H         1 <0>         0.0990
     43 H9          1.0985   -2.3201    0.5285 H         1 <0>         0.4191
     44 H10         2.5699   -3.2698   -2.3391 H         1 <0>         0.0829
     45 H11         4.2761   -2.6918    0.1250 H         1 <0>         0.0811
     46 H12         4.5789   -2.0719   -1.5159 H         1 <0>         0.0605
     47 H13         3.1230   -1.5635   -0.6269 H         1 <0>         0.0470
     48 H14         4.3986   -5.0928   -0.7140 H         1 <0>         0.0771
     49 H15         3.4683   -5.5398   -2.1642 H         1 <0>         0.0584
     50 H16         4.8196   -4.3885   -2.2936 H         1 <0>         0.0687
     51 H17         1.6535   -7.1938    0.5146 H         1 <0>         0.0791
     52 H18         2.7469   -6.5337   -0.7400 H         1 <0>         0.0877
     53 H19         3.3803   -8.8663    0.4739 H         1 <0>         0.0965
     54 H20         4.6705   -7.6494    0.1922 H         1 <0>         0.0826
     55 H21         3.0638   -8.1701    2.7573 H         1 <0>         0.0948
     56 H22         4.8333   -7.9315    2.5807 H         1 <0>         0.0924
     57 H23         5.5773   -6.3408    4.1469 H         1 <0>         0.4001
     58 H24         7.5401   -4.9011    2.5338 H         1 <0>         0.1036
     59 H25         5.6112   -4.4333    5.6763 H         1 <0>         0.1138
     60 H26         5.3634   -2.2475    6.7827 H         1 <0>         0.1211
     61 H27         6.6085   -0.2953    5.9449 H         1 <0>         0.1218
     62 H28         8.1019   -0.5291    4.0011 H         1 <0>         0.1230
     63 H29         8.3561   -2.7167    2.8999 H         1 <0>         0.1203
     64 H30         6.6227   -6.4747    5.7716 H         1 <0>         0.1174
     65 H31         8.1764   -7.8788    7.0669 H         1 <0>         0.1257
     66 H32        10.5233   -8.0979    6.3546 H         1 <0>         0.1257
     67 H33        11.3163   -6.9136    4.3467 H         1 <0>         0.1268
     68 H34         9.7605   -5.5162    3.0467 H         1 <0>         0.1239
     69 H35        -2.2213   -2.2326   -2.4229 H         1 <0>         0.4423
     70 H36        -2.3942   -0.6498   -1.9990 H         1 <0>         0.4416
     71 H37        -1.0669   -1.1356   -2.8457 H         1 <0>         0.4413
@<TRIPOS>BOND
     1    1    2 1
     2    1   38 1
     3    1   39 1
     4    1   40 1
     5    2    3 1
     6    2   41 1
     7    2   42 1
     8    3    4 1
     9    3    5 1
    10    3   37 1
    11    5    6 2
    12    5    7 am
    13    7    8 1
    14    7   43 1
    15    8    9 1
    16    8   10 1
    17    8   13 1
    18   10   11 1
    19   10   12 1
    20   10   44 1
    21   11   45 1
    22   11   46 1
    23   11   47 1
    24   12   48 1
    25   12   49 1
    26   12   50 1
    27   13   14 2
    28   13   15 am
    29   15   19 1
    30   15   16 1
    31   16   17 1
    32   16   51 1
    33   16   52 1
    34   17   18 1
    35   17   53 1
    36   17   54 1
    37   18   19 1
    38   18   55 1
    39   18   56 1
    40   19   20 1
    41   19   21 1
    42   21   22 2
    43   21   23 am
    44   23   24 1
    45   23   57 1
    46   24   25 1
    47   24   31 1
    48   24   58 1
    49   25   30 ar
    50   25   26 ar
    51   26   27 ar
    52   26   59 1
    53   27   28 ar
    54   27   60 1
    55   28   29 ar
    56   28   61 1
    57   29   30 ar
    58   29   62 1
    59   30   63 1
    60   31   36 ar
    61   31   32 ar
    62   32   33 ar
    63   32   64 1
    64   33   34 ar
    65   33   65 1
    66   34   35 ar
    67   34   66 1
    68   35   36 ar
    69   35   67 1
    70   36   68 1
    71   37   69 1
    72   37   70 1
    73   37   71 1
@<TRIPOS>MOLECULE
CHEMBL574477
   82    85     0     0     0
SMALL
USER_CHARGES

@<TRIPOS>ATOM
      1 C1         -0.0187    1.5258    0.0104 C.3       1 <0>        -0.1710
      2 C2          0.0021   -0.0041    0.0020 C.3       1 <0>        -0.1428
      3 C3          0.7182   -0.4975   -1.2568 C.3       1 <0>         0.0120
      4 H1          1.7103   -0.0491   -1.3098 H         1 <0>         0.1638
      5 C4          0.8473   -1.9981   -1.2057 C.2       1 <0>         0.5036
      6 O1          0.0734   -2.6948   -1.8275 O.2       1 <0>        -0.4905
      7 N1          1.8227   -2.5659   -0.4690 N.am      1 <0>        -0.6942
      8 C5          1.9479   -4.0218   -0.4195 C.3       1 <0>         0.1549
      9 H2          1.6698   -4.4194   -1.4083 H         1 <0>         0.1293
     10 C6          3.3875   -4.4329   -0.1289 C.3       1 <0>        -0.1158
     11 H3          3.4014   -5.4428    0.2890 H         1 <0>         0.1113
     12 C7          4.0513   -3.4639    0.8436 C.3       1 <0>        -0.1238
     13 C8          3.2649   -3.3608    2.1453 C.3       1 <0>        -0.1415
     14 C9          2.6383   -4.7114    2.4861 C.3       1 <0>         0.1299
     15 H4          3.2846   -5.5181    2.1349 H         1 <0>         0.0855
     16 C10         2.4620   -4.8188    4.0106 C.3       1 <0>        -0.1278
     17 C11         1.1277   -5.5699    4.1817 C.3       1 <0>        -0.1283
     18 C12         0.3420   -5.2440    2.9009 C.3       1 <0>         0.1173
     19 H5         -0.2003   -6.1291    2.5612 H         1 <0>         0.1107
     20 N2          1.3122   -4.8256    1.8736 N.am      1 <0>        -0.5815
     21 C13         0.9940   -4.5869    0.5900 C.2       1 <0>         0.5209
     22 O2         -0.1354   -4.8528    0.2235 O.2       1 <0>        -0.5016
     23 C14        -0.6347   -4.1264    3.1785 C.2       1 <0>         0.5194
     24 O3         -0.5422   -3.0770    2.5776 O.2       1 <0>        -0.5306
     25 N3         -1.6093   -4.2952    4.0940 N.am      1 <0>        -0.7181
     26 C15        -2.5570   -3.2109    4.3633 C.3       1 <0>         0.2383
     27 C16        -3.6840   -3.2692    3.3647 C.ar      1 <0>        -0.0915
     28 C17        -4.2126   -4.4901    2.9894 C.ar      1 <0>        -0.0999
     29 C18        -5.2464   -4.5436    2.0733 C.ar      1 <0>        -0.1158
     30 C19        -5.7521   -3.3761    1.5329 C.ar      1 <0>        -0.1149
     31 C20        -5.2242   -2.1550    1.9088 C.ar      1 <0>        -0.1197
     32 C21        -4.1932   -2.1013    2.8281 C.ar      1 <0>        -0.1050
     33 C22        -3.1117   -3.3630    5.7562 C.ar      1 <0>        -0.0976
     34 C23        -3.4244   -4.6187    6.2424 C.ar      1 <0>        -0.1130
     35 C24        -3.9332   -4.7582    7.5201 C.ar      1 <0>        -0.1115
     36 C25        -4.1289   -3.6421    8.3118 C.ar      1 <0>        -0.1102
     37 C26        -3.8153   -2.3865    7.8260 C.ar      1 <0>        -0.1117
     38 C27        -3.3024   -2.2473    6.5499 C.ar      1 <0>        -0.1045
     39 C28         4.1804   -4.4439   -1.4441 C.3       1 <0>         0.1205
     40 N4          5.5318   -4.9518   -1.1954 N.am      1 <0>        -0.7050
     41 C29         6.4120   -5.0512   -2.2112 C.2       1 <0>         0.4976
     42 O4          6.0852   -4.7203   -3.3313 O.2       1 <0>        -0.5241
     43 C30         7.8022   -5.5737   -1.9553 C.3       1 <0>        -0.0277
     44 N5          8.5606   -5.5842   -3.2133 N.4       1 <0>        -0.6219
     45 N6         -0.0570   -0.1128   -2.4438 N.4       1 <0>        -0.6223
     46 H6          1.0039    1.9031    0.0027 H         1 <0>         0.0747
     47 H7         -0.5459    1.8868   -0.8726 H         1 <0>         0.0565
     48 H8         -0.5289    1.8773    0.9072 H         1 <0>         0.0910
     49 H9          0.5293   -0.3651    0.8851 H         1 <0>         0.1172
     50 H10        -1.0205   -0.3814    0.0098 H         1 <0>         0.1007
     51 H11         2.4416   -2.0086    0.0283 H         1 <0>         0.4111
     52 H12         5.0618   -3.8273    1.0713 H         1 <0>         0.0794
     53 H13         4.1448   -2.4779    0.3880 H         1 <0>         0.0738
     54 H14         3.9408   -3.0664    2.9532 H         1 <0>         0.0924
     55 H15         2.4829   -2.6087    2.0531 H         1 <0>         0.0781
     56 H16         3.2775   -5.3915    4.4502 H         1 <0>         0.0954
     57 H17         2.4033   -3.8293    4.4604 H         1 <0>         0.0830
     58 H18         1.3017   -6.6412    4.2619 H         1 <0>         0.0954
     59 H19         0.5973   -5.2013    5.0597 H         1 <0>         0.0938
     60 H20        -1.6833   -5.1345    4.5746 H         1 <0>         0.4023
     61 H21        -2.0456   -2.2520    4.2786 H         1 <0>         0.1011
     62 H22        -3.8175   -5.4023    3.4116 H         1 <0>         0.1148
     63 H23        -5.6588   -5.4975    1.7796 H         1 <0>         0.1237
     64 H24        -6.5593   -3.4179    0.8166 H         1 <0>         0.1235
     65 H25        -5.6190   -1.2429    1.4863 H         1 <0>         0.1220
     66 H26        -3.7832   -1.1472    3.1246 H         1 <0>         0.1178
     67 H27        -3.2715   -5.4907    5.6238 H         1 <0>         0.1171
     68 H28        -4.1782   -5.7392    7.8996 H         1 <0>         0.1275
     69 H29        -4.5271   -3.7510    9.3098 H         1 <0>         0.1278
     70 H30        -3.9685   -1.5144    8.4445 H         1 <0>         0.1279
     71 H31        -3.0540   -1.2667    6.1717 H         1 <0>         0.1221
     72 H32         3.6776   -5.0873   -2.1661 H         1 <0>         0.0874
     73 H33         4.2405   -3.4304   -1.8407 H         1 <0>         0.0827
     74 H34         5.7932   -5.2165   -0.2995 H         1 <0>         0.4135
     75 H35         8.3049   -4.9302   -1.2333 H         1 <0>         0.1661
     76 H36         7.7421   -6.5872   -1.5587 H         1 <0>         0.1668
     77 H37         9.4914   -5.9341   -3.0420 H         1 <0>         0.4486
     78 H38         8.0951   -6.1799   -3.8817 H         1 <0>         0.4440
     79 H39        -0.1435    0.8919   -2.4780 H         1 <0>         0.4428
     80 H40         0.4152   -0.4382   -3.2739 H         1 <0>         0.4395
     81 H41        -0.9754   -0.5279   -2.3947 H         1 <0>         0.4449
     82 H42         8.6162   -4.6460   -3.5804 H         1 <0>         0.4427
@<TRIPOS>BOND
     1    1    2 1
     2    1   46 1
     3    1   47 1
     4    1   48 1
     5    2    3 1
     6    2   49 1
     7    2   50 1
     8    3    4 1
     9    3    5 1
    10    3   45 1
    11    5    6 2
    12    5    7 am
    13    7    8 1
    14    7   51 1
    15    8    9 1
    16    8   21 1
    17    8   10 1
    18   10   11 1
    19   10   12 1
    20   10   39 1
    21   12   13 1
    22   12   52 1
    23   12   53 1
    24   13   14 1
    25   13   54 1
    26   13   55 1
    27   14   15 1
    28   14   20 1
    29   14   16 1
    30   16   17 1
    31   16   56 1
    32   16   57 1
    33   17   18 1
    34   17   58 1
    35   17   59 1
    36   18   19 1
    37   18   20 1
    38   18   23 1
    39   20   21 am
    40   21   22 2
    41   23   24 2
    42   23   25 am
    43   25   26 1
    44   25   60 1
    45   26   27 1
    46   26   33 1
    47   26   61 1
    48   27   32 ar
    49   27   28 ar
    50   28   29 ar
    51   28   62 1
    52   29   30 ar
    53   29   63 1
    54   30   31 ar
    55   30   64 1
    56   31   32 ar
    57   31   65 1
    58   32   66 1
    59   33   38 ar
    60   33   34 ar
    61   34   35 ar
    62   34   67 1
    63   35   36 ar
    64   35   68 1
    65   36   37 ar
    66   36   69 1
    67   37   38 ar
    68   37   70 1
    69   38   71 1
    70   39   40 1
    71   39   72 1
    72   39   73 1
    73   40   41 am
    74   40   74 1
    75   41   42 2
    76   41   43 1
    77   43   44 1
    78   43   75 1
    79   43   76 1
    80   44   77 1
    81   44   78 1
    82   44   82 1
    83   45   79 1
    84   45   80 1
    85   45   81 1
@<TRIPOS>MOLECULE
CHEMBL510669
   56    58     0     0     0
SMALL
USER_CHARGES

@<TRIPOS>ATOM
      1 C1         -0.0187    1.5258    0.0104 C.3       1 <0>        -0.1773
      2 C2          0.0021   -0.0041    0.0020 C.3       1 <0>         0.0120
      3 H1          0.5123   -0.3556   -0.8948 H         1 <0>         0.1644
      4 C3          0.7309   -0.5033    1.2229 C.2       1 <0>         0.5132
      5 O1          0.1049   -0.8912    2.1865 O.2       1 <0>        -0.5167
      6 N1          2.0785   -0.5187    1.2440 N.am      1 <0>        -0.6816
      7 C4          2.7870   -1.0040    2.4308 C.3       1 <0>         0.1540
      8 H2          2.2161   -1.8195    2.8748 H         1 <0>         0.1204
      9 C5          4.1443   -1.5245    2.0140 C.3       1 <0>        -0.1296
     10 C6          4.8636   -2.2416    3.1250 C.3       1 <0>        -0.1175
     11 C7          5.5422   -1.3467    4.1116 C.3       1 <0>        -0.1366
     12 C8          4.5899   -0.6883    5.1000 C.3       1 <0>         0.1267
     13 H3          4.0029   -1.4461    5.6187 H         1 <0>         0.0882
     14 C9          5.4579    0.1031    6.1119 C.3       1 <0>        -0.1292
     15 C10         4.5435    1.2917    6.4900 C.3       1 <0>        -0.1277
     16 C11         3.7969    1.5712    5.1723 C.3       1 <0>         0.1182
     17 H4          2.7954    1.9452    5.3850 H         1 <0>         0.1131
     18 N2          3.7019    0.2768    4.4393 N.am      1 <0>        -0.5680
     19 C12         2.8930    0.1033    3.4161 C.2       1 <0>         0.5235
     20 O2          2.0876    0.9955    3.2543 O.2       1 <0>        -0.5574
     21 C13         4.5591    2.5819    4.3547 C.2       1 <0>         0.5140
     22 O3          4.9815    2.2807    3.2584 O.2       1 <0>        -0.5303
     23 N3          4.7715    3.8206    4.8417 N.am      1 <0>        -0.7230
     24 C14         5.5125    4.8031    4.0468 C.3       1 <0>         0.1659
     25 C15         5.6101    6.0976    4.8122 C.ar      1 <0>        -0.1167
     26 C16         4.6277    7.0598    4.6710 C.ar      1 <0>        -0.1011
     27 C17         4.7172    8.2472    5.3730 C.ar      1 <0>        -0.1204
     28 C18         5.7890    8.4723    6.2166 C.ar      1 <0>        -0.1073
     29 C19         6.7709    7.5097    6.3585 C.ar      1 <0>        -0.1194
     30 C20         6.6791    6.3205    5.6597 C.ar      1 <0>        -0.1000
     31 N4         -1.3761   -0.5125    0.0124 N.4       1 <0>        -0.6211
     32 H5          1.0039    1.9031    0.0027 H         1 <0>         0.1118
     33 H6         -0.5459    1.8868   -0.8726 H         1 <0>         0.0972
     34 H7         -0.5289    1.8773    0.9072 H         1 <0>         0.0916
     35 H8          2.5791   -0.2084    0.4733 H         1 <0>         0.4135
     36 H9          4.0151   -2.2120    1.1781 H         1 <0>         0.0853
     37 H10         4.7561   -0.6850    1.6839 H         1 <0>         0.0816
     38 H11         4.1425   -2.8598    3.6597 H         1 <0>         0.0665
     39 H12         5.6132   -2.8979    2.6828 H         1 <0>         0.0827
     40 H13         6.2718   -1.9336    4.6695 H         1 <0>         0.0872
     41 H14         6.0722   -0.5658    3.5661 H         1 <0>         0.0764
     42 H15         5.6817   -0.5059    6.9878 H         1 <0>         0.0961
     43 H16         6.3752    0.4560    5.6409 H         1 <0>         0.0835
     44 H17         3.8455    1.0078    7.2776 H         1 <0>         0.0945
     45 H18         5.1363    2.1559    6.7898 H         1 <0>         0.0937
     46 H19         4.4336    4.0615    5.7184 H         1 <0>         0.4032
     47 H20         6.5143    4.4248    3.8435 H         1 <0>         0.0775
     48 H21         4.9914    4.9761    3.1052 H         1 <0>         0.0748
     49 H22         3.7904    6.8840    4.0119 H         1 <0>         0.1218
     50 H23         3.9501    8.9993    5.2621 H         1 <0>         0.1258
     51 H24         5.8593    9.4003    6.7645 H         1 <0>         0.1263
     52 H25         7.6084    7.6857    7.0173 H         1 <0>         0.1269
     53 H26         7.4444    5.5669    5.7734 H         1 <0>         0.1240
     54 H27        -1.8484   -0.1871    0.8426 H         1 <0>         0.4427
     55 H28        -1.8641   -0.1783   -0.8050 H         1 <0>         0.4428
     56 H29        -1.3624   -1.5214    0.0069 H         1 <0>         0.4396
@<TRIPOS>BOND
     1    1    2 1
     2    1   32 1
     3    1   33 1
     4    1   34 1
     5    2    3 1
     6    2    4 1
     7    2   31 1
     8    4    5 2
     9    4    6 am
    10    6    7 1
    11    6   35 1
    12    7    8 1
    13    7   19 1
    14    7    9 1
    15    9   10 1
    16    9   36 1
    17    9   37 1
    18   10   11 1
    19   10   38 1
    20   10   39 1
    21   11   12 1
    22   11   40 1
    23   11   41 1
    24   12   13 1
    25   12   18 1
    26   12   14 1
    27   14   15 1
    28   14   42 1
    29   14   43 1
    30   15   16 1
    31   15   44 1
    32   15   45 1
    33   16   17 1
    34   16   18 1
    35   16   21 1
    36   18   19 am
    37   19   20 2
    38   21   22 2
    39   21   23 am
    40   23   24 1
    41   23   46 1
    42   24   25 1
    43   24   47 1
    44   24   48 1
    45   25   30 ar
    46   25   26 ar
    47   26   27 ar
    48   26   49 1
    49   27   28 ar
    50   27   50 1
    51   28   29 ar
    52   28   51 1
    53   29   30 ar
    54   29   52 1
    55   30   53 1
    56   31   54 1
    57   31   55 1
    58   31   56 1
@<TRIPOS>MOLECULE
CHEMBL574704
   81    84     0     0     0
SMALL
USER_CHARGES

@<TRIPOS>ATOM
      1 C1         -0.3222    1.8588   -0.0793 C.3       1 <0>        -0.1737
      2 C2         -0.1498    0.3400   -0.1442 C.3       1 <0>        -0.1446
      3 C3         -1.5088   -0.3363    0.0479 C.3       1 <0>         0.0074
      4 H1         -2.2151    0.0528   -0.6855 H         1 <0>         0.1648
      5 C4         -1.3601   -1.8243   -0.1382 C.2       1 <0>         0.5093
      6 O1         -1.6412   -2.5798    0.7680 O.2       1 <0>        -0.4935
      7 N1         -0.9149   -2.3156   -1.3115 N.am      1 <0>        -0.6950
      8 C5         -0.7707   -3.7594   -1.4920 C.3       1 <0>         0.1522
      9 H2         -1.5814   -4.2531   -0.9334 H         1 <0>         0.1274
     10 C6         -0.9068   -4.1385   -2.9630 C.3       1 <0>        -0.0977
     11 H3         -0.4214   -5.1022   -3.1380 H         1 <0>         0.1121
     12 C7         -0.2853   -3.0776   -3.8649 C.3       1 <0>        -0.1305
     13 C8          1.1810   -2.8469   -3.5187 C.3       1 <0>        -0.1426
     14 C9          1.8254   -4.1576   -3.0720 C.3       1 <0>         0.1299
     15 H4          1.3672   -4.9946   -3.6025 H         1 <0>         0.0861
     16 C10         3.3318   -4.1139   -3.3813 C.3       1 <0>        -0.1287
     17 C11         3.9804   -4.8455   -2.1906 C.3       1 <0>        -0.1288
     18 C12         2.9841   -4.6485   -1.0361 C.3       1 <0>         0.1171
     19 H5          2.9153   -5.5633   -0.4434 H         1 <0>         0.1110
     20 N2          1.6709   -4.3330   -1.6256 N.am      1 <0>        -0.5809
     21 C13         0.5344   -4.2227   -0.9172 C.2       1 <0>         0.5180
     22 O2          0.5653   -4.5245    0.2612 O.2       1 <0>        -0.5026
     23 C14         3.4467   -3.5098   -0.1590 C.2       1 <0>         0.5200
     24 O3          2.7515   -2.5249   -0.0270 O.2       1 <0>        -0.5326
     25 N3          4.6323   -3.5880    0.4773 N.am      1 <0>        -0.7174
     26 C15         5.0811   -2.4832    1.3283 C.3       1 <0>         0.2385
     27 C16         4.4942   -2.6409    2.7074 C.ar      1 <0>        -0.0913
     28 C17         4.4188   -3.8935    3.2873 C.ar      1 <0>        -0.0998
     29 C18         3.8804   -4.0382    4.5523 C.ar      1 <0>        -0.1155
     30 C19         3.4179   -2.9303    5.2375 C.ar      1 <0>        -0.1149
     31 C20         3.4941   -1.6776    4.6579 C.ar      1 <0>        -0.1203
     32 C21         4.0364   -1.5323    3.3947 C.ar      1 <0>        -0.1057
     33 C22         6.5854   -2.4972    1.4180 C.ar      1 <0>        -0.0988
     34 C23         7.2602   -3.6990    1.5244 C.ar      1 <0>        -0.1131
     35 C24         8.6401   -3.7118    1.6066 C.ar      1 <0>        -0.1113
     36 C25         9.3451   -2.5230    1.5820 C.ar      1 <0>        -0.1095
     37 C26         8.6702   -1.3214    1.4747 C.ar      1 <0>        -0.1114
     38 C27         7.2907   -1.3087    1.3881 C.ar      1 <0>        -0.1044
     39 C28        -2.3967   -4.2789   -3.3082 C.3       1 <0>        -0.1513
     40 C29        -2.5419   -4.7799   -4.7466 C.3       1 <0>        -0.0139
     41 N4         -3.9670   -4.9141   -5.0768 N.4       1 <0>        -0.6385
     42 N5         -2.0065   -0.0593    1.4019 N.4       1 <0>        -0.4942
     43 C30        -3.3782   -0.5684    1.5330 C.3       1 <0>        -0.0575
     44 H6          0.6157    2.3429   -0.3516 H         1 <0>         0.0920
     45 H7         -1.1044    2.1657   -0.7737 H         1 <0>         0.0736
     46 H8         -0.6008    2.1500    0.9335 H         1 <0>         0.0603
     47 H9          0.2604    0.0620   -1.1150 H         1 <0>         0.1109
     48 H10         0.5310    0.0176    0.6437 H         1 <0>         0.1024
     49 H11        -0.6901   -1.7114   -2.0363 H         1 <0>         0.4108
     50 H12        -0.3515   -3.4157   -4.9071 H         1 <0>         0.0833
     51 H13        -0.8377   -2.1414   -3.7810 H         1 <0>         0.0741
     52 H14         1.7062   -2.4734   -4.4024 H         1 <0>         0.0938
     53 H15         1.2675   -2.1082   -2.7233 H         1 <0>         0.0780
     54 H16         3.5465   -4.6396   -4.3107 H         1 <0>         0.0964
     55 H17         3.6826   -3.0848   -3.4339 H         1 <0>         0.0833
     56 H18         4.1023   -5.9034   -2.4147 H         1 <0>         0.0960
     57 H19         4.9414   -4.3923   -1.9476 H         1 <0>         0.0943
     58 H20         5.1884   -4.3757    0.3718 H         1 <0>         0.4027
     59 H21         4.7515   -1.5370    0.8992 H         1 <0>         0.1009
     60 H22         4.7802   -4.7591    2.7520 H         1 <0>         0.1150
     61 H23         3.8209   -5.0168    5.0051 H         1 <0>         0.1240
     62 H24         2.9966   -3.0434    6.2255 H         1 <0>         0.1238
     63 H25         3.1324   -0.8120    5.1931 H         1 <0>         0.1220
     64 H26         4.0994   -0.5532    2.9433 H         1 <0>         0.1178
     65 H27         6.7094   -4.6277    1.5436 H         1 <0>         0.1170
     66 H28         9.1673   -4.6507    1.6904 H         1 <0>         0.1278
     67 H29        10.4231   -2.5330    1.6469 H         1 <0>         0.1282
     68 H30         9.2210   -0.3925    1.4558 H         1 <0>         0.1282
     69 H31         6.7637   -0.3701    1.3006 H         1 <0>         0.1220
     70 H32        -2.8620   -4.9911   -2.6267 H         1 <0>         0.0976
     71 H33        -2.8853   -3.3095   -3.2100 H         1 <0>         0.0915
     72 H34        -2.0765   -4.0677   -5.4280 H         1 <0>         0.1387
     73 H35        -2.0532   -5.7492   -4.8448 H         1 <0>         0.1396
     74 H36        -4.3977   -5.5734   -4.4460 H         1 <0>         0.4376
     75 H37        -4.4193   -4.0168   -4.9859 H         1 <0>         0.4350
     76 H38        -1.4126   -0.5151    2.0784 H         1 <0>         0.4384
     77 H39        -4.0020   -0.1379    0.7496 H         1 <0>         0.1205
     78 H40        -3.3735   -1.6542    1.4380 H         1 <0>         0.1361
     79 H41        -3.7771   -0.2908    2.5087 H         1 <0>         0.1332
     80 H42        -4.0627   -5.2445   -6.0254 H         1 <0>         0.4437
     81 H43        -2.0002    0.9363    1.5655 H         1 <0>         0.4358
@<TRIPOS>BOND
     1    1    2 1
     2    1   44 1
     3    1   45 1
     4    1   46 1
     5    2    3 1
     6    2   47 1
     7    2   48 1
     8    3    4 1
     9    3    5 1
    10    3   42 1
    11    5    6 2
    12    5    7 am
    13    7    8 1
    14    7   49 1
    15    8    9 1
    16    8   21 1
    17    8   10 1
    18   10   11 1
    19   10   12 1
    20   10   39 1
    21   12   13 1
    22   12   50 1
    23   12   51 1
    24   13   14 1
    25   13   52 1
    26   13   53 1
    27   14   15 1
    28   14   20 1
    29   14   16 1
    30   16   17 1
    31   16   54 1
    32   16   55 1
    33   17   18 1
    34   17   56 1
    35   17   57 1
    36   18   19 1
    37   18   20 1
    38   18   23 1
    39   20   21 am
    40   21   22 2
    41   23   24 2
    42   23   25 am
    43   25   26 1
    44   25   58 1
    45   26   27 1
    46   26   33 1
    47   26   59 1
    48   27   32 ar
    49   27   28 ar
    50   28   29 ar
    51   28   60 1
    52   29   30 ar
    53   29   61 1
    54   30   31 ar
    55   30   62 1
    56   31   32 ar
    57   31   63 1
    58   32   64 1
    59   33   38 ar
    60   33   34 ar
    61   34   35 ar
    62   34   65 1
    63   35   36 ar
    64   35   66 1
    65   36   37 ar
    66   36   67 1
    67   37   38 ar
    68   37   68 1
    69   38   69 1
    70   39   40 1
    71   39   70 1
    72   39   71 1
    73   40   41 1
    74   40   72 1
    75   40   73 1
    76   41   74 1
    77   41   75 1
    78   41   80 1
    79   42   43 1
    80   42   76 1
    81   42   81 1
    82   43   77 1
    83   43   78 1
    84   43   79 1
@<TRIPOS>MOLECULE
CHEMBL189202
   79    80     0     0     0
SMALL
USER_CHARGES

@<TRIPOS>ATOM
      1 C1          2.8873    0.1094   -1.1466 C.3       1 <0>        -0.1838
      2 C2          2.4129   -1.3452   -1.1416 C.3       1 <0>         0.0091
      3 H1          1.4991   -1.4273   -0.5530 H         1 <0>         0.1705
      4 C3          2.1412   -1.7899   -2.5557 C.2       1 <0>         0.5034
      5 O1          2.7542   -2.7248   -3.0257 O.2       1 <0>        -0.5276
      6 N1          1.2170   -1.1485   -3.2980 N.am      1 <0>        -0.6808
      7 C4          0.9529   -1.5808   -4.6726 C.3       1 <0>         0.1348
      8 H2          1.8809   -1.9236   -5.1303 H         1 <0>         0.1119
      9 C5         -0.0631   -2.7247   -4.6612 C.3       1 <0>        -0.0913
     10 C6         -1.4031   -2.2113   -4.1305 C.3       1 <0>        -0.1510
     11 C7         -0.2480   -3.2567   -6.0838 C.3       1 <0>        -0.1616
     12 C8          0.3990   -0.4248   -5.4651 C.2       1 <0>         0.5301
     13 O2         -0.4050    0.3282   -4.9578 O.2       1 <0>        -0.5005
     14 N2          0.7972   -0.2279   -6.7375 N.am      1 <0>        -0.5904
     15 C9          1.6932   -1.1126   -7.5041 C.3       1 <0>         0.0878
     16 C10         1.3506   -0.8339   -8.9889 C.3       1 <0>        -0.1319
     17 C11         1.0805    0.6938   -8.9648 C.3       1 <0>        -0.1269
     18 C12         0.4048    0.9016   -7.5931 C.3       1 <0>         0.1237
     19 H3          0.7469    1.8375   -7.1514 H         1 <0>         0.0996
     20 C13        -1.0933    0.9254   -7.7551 C.2       1 <0>         0.5219
     21 O3         -1.7468   -0.0638   -7.4995 O.2       1 <0>        -0.5281
     22 N3         -1.7069    2.0460   -8.1843 N.am      1 <0>        -0.6959
     23 C14        -3.1697    2.1048   -8.2398 C.3       1 <0>         0.1376
     24 H4         -3.5859    1.1813   -7.8372 H         1 <0>         0.1205
     25 C15        -3.6643    3.2914   -7.4102 C.3       1 <0>        -0.0903
     26 C16        -3.3358    3.0605   -5.9577 C.ar      1 <0>        -0.0660
     27 C17        -4.1942    2.3233   -5.1636 C.ar      1 <0>        -0.1104
     28 C18        -3.8928    2.1116   -3.8312 C.ar      1 <0>        -0.1149
     29 C19        -2.7328    2.6366   -3.2930 C.ar      1 <0>        -0.1208
     30 C20        -1.8740    3.3731   -4.0874 C.ar      1 <0>        -0.1092
     31 C21        -2.1732    3.5812   -5.4208 C.ar      1 <0>        -0.1049
     32 C22        -3.6117    2.2732   -9.6707 C.2       1 <0>         0.4984
     33 O4         -2.7861    2.3378  -10.5568 O.2       1 <0>        -0.5405
     34 N4         -4.9244    2.3520   -9.9656 N.am      1 <0>        -0.6884
     35 C23        -5.3541    2.5157  -11.3566 C.3       1 <0>         0.0760
     36 H5         -4.6776    1.9680  -12.0127 H         1 <0>         0.0784
     37 C24        -6.7745    1.9709  -11.5191 C.3       1 <0>        -0.0867
     38 C25        -7.7438    2.8193  -10.6935 C.3       1 <0>        -0.1420
     39 C26        -7.1767    2.0271  -12.9942 C.3       1 <0>        -0.1407
     40 C27        -5.3324    3.9780  -11.7203 C.2       1 <0>         0.4992
     41 O5         -5.1119    4.3169  -12.8705 O.co2     1 <0>        -0.6908
     42 O6         -5.5352    4.8222  -10.8643 O.co2     1 <0>        -0.6897
     43 N5          3.4536   -2.1976   -0.5516 N.4       1 <0>        -0.6195
     44 H6          3.8010    0.1915   -1.7352 H         1 <0>         0.0906
     45 H7          2.1150    0.7419   -1.5844 H         1 <0>         0.1129
     46 H8          3.0838    0.4310   -0.1239 H         1 <0>         0.0999
     47 H9          0.7267   -0.4007   -2.9220 H         1 <0>         0.4184
     48 H10         0.2995   -3.5263   -4.0178 H         1 <0>         0.0811
     49 H11        -1.8186   -1.4878   -4.8319 H         1 <0>         0.0787
     50 H12        -2.0939   -3.0471   -4.0188 H         1 <0>         0.0579
     51 H13        -1.2515   -1.7334   -3.1626 H         1 <0>         0.0491
     52 H14        -0.5403   -2.4389   -6.7424 H         1 <0>         0.0764
     53 H15         0.6891   -3.6888   -6.4348 H         1 <0>         0.0585
     54 H16        -1.0247   -4.0215   -6.0875 H         1 <0>         0.0690
     55 H17         2.7352   -0.8644   -7.3022 H         1 <0>         0.0746
     56 H18         1.4966   -2.1563   -7.2589 H         1 <0>         0.0849
     57 H19         2.1951   -1.0711   -9.6360 H         1 <0>         0.0933
     58 H20         0.4601   -1.3833   -9.2942 H         1 <0>         0.0843
     59 H21         2.0148    1.2517   -9.0269 H         1 <0>         0.0920
     60 H22         0.4054    0.9789   -9.7717 H         1 <0>         0.0987
     61 H23        -1.1800    2.8137   -8.4563 H         1 <0>         0.4047
     62 H24        -3.1753    4.2033   -7.7529 H         1 <0>         0.0866
     63 H25        -4.7434    3.3918   -7.5271 H         1 <0>         0.0959
     64 H26        -5.1005    1.9131   -5.5841 H         1 <0>         0.1189
     65 H27        -4.5638    1.5362   -3.2107 H         1 <0>         0.1146
     66 H28        -2.4977    2.4718   -2.2519 H         1 <0>         0.1095
     67 H29        -0.9679    3.7836   -3.6668 H         1 <0>         0.1102
     68 H30        -1.5004    4.1534   -6.0423 H         1 <0>         0.1138
     69 H31        -5.5847    2.3003   -9.2569 H         1 <0>         0.3910
     70 H32        -6.8095    0.9381  -11.1721 H         1 <0>         0.0583
     71 H33        -7.7089    3.8520  -11.0405 H         1 <0>         0.0733
     72 H34        -8.7557    2.4311  -10.8092 H         1 <0>         0.0441
     73 H35        -7.4573    2.7792   -9.6426 H         1 <0>         0.0451
     74 H36        -6.4862    1.4226  -13.5823 H         1 <0>         0.0503
     75 H37        -8.1886    1.6389  -13.1099 H         1 <0>         0.0470
     76 H38        -7.1418    3.0598  -13.3412 H         1 <0>         0.0729
     77 H39         3.6355   -1.8999    0.3951 H         1 <0>         0.4426
     78 H40         3.1408   -3.1569   -0.5483 H         1 <0>         0.4428
     79 H41         4.2995   -2.1216   -1.0965 H         1 <0>         0.4399
@<TRIPOS>BOND
     1    1    2 1
     2    1   44 1
     3    1   45 1
     4    1   46 1
     5    2    3 1
     6    2    4 1
     7    2   43 1
     8    4    5 2
     9    4    6 am
    10    6    7 1
    11    6   47 1
    12    7    8 1
    13    7    9 1
    14    7   12 1
    15    9   10 1
    16    9   11 1
    17    9   48 1
    18   10   49 1
    19   10   50 1
    20   10   51 1
    21   11   52 1
    22   11   53 1
    23   11   54 1
    24   12   13 2
    25   12   14 am
    26   14   18 1
    27   14   15 1
    28   15   16 1
    29   15   55 1
    30   15   56 1
    31   16   17 1
    32   16   57 1
    33   16   58 1
    34   17   18 1
    35   17   59 1
    36   17   60 1
    37   18   19 1
    38   18   20 1
    39   20   21 2
    40   20   22 am
    41   22   23 1
    42   22   61 1
    43   23   24 1
    44   23   25 1
    45   23   32 1
    46   25   26 1
    47   25   62 1
    48   25   63 1
    49   26   31 ar
    50   26   27 ar
    51   27   28 ar
    52   27   64 1
    53   28   29 ar
    54   28   65 1
    55   29   30 ar
    56   29   66 1
    57   30   31 ar
    58   30   67 1
    59   31   68 1
    60   32   33 2
    61   32   34 am
    62   34   35 1
    63   34   69 1
    64   35   36 1
    65   35   37 1
    66   35   40 1
    67   37   38 1
    68   37   39 1
    69   37   70 1
    70   38   71 1
    71   38   72 1
    72   38   73 1
    73   39   74 1
    74   39   75 1
    75   39   76 1
    76   40   41 2
    77   40   42 1
    78   43   77 1
    79   43   78 1
    80   43   79 1
@<TRIPOS>MOLECULE
CHEMBL517556
   73    75     0     0     0
SMALL
USER_CHARGES

@<TRIPOS>ATOM
      1 C1         -0.1842    2.1837    1.8041 C.3       1 <0>        -0.1824
      2 C2         -0.2456    0.7708    1.2205 C.3       1 <0>         0.0048
      3 H1          0.0355    0.8000    0.1677 H         1 <0>         0.1669
      4 C3          0.7072   -0.1243    1.9702 C.2       1 <0>         0.5052
      5 O1          0.2890   -1.1020    2.5533 O.2       1 <0>        -0.5194
      6 N1          2.0241    0.1618    1.9927 N.am      1 <0>        -0.6832
      7 C4          2.9503   -0.7083    2.7215 C.3       1 <0>         0.1386
      8 H2          2.4590   -1.0954    3.6141 H         1 <0>         0.1159
      9 C5          4.1706    0.0802    3.1217 C.2       1 <0>         0.5292
     10 O2          4.6028    0.9432    2.3873 O.2       1 <0>        -0.5175
     11 N2          4.7817   -0.1735    4.2959 N.am      1 <0>        -0.6020
     12 C6          4.4319   -1.2598    5.2282 C.3       1 <0>         0.0876
     13 C7          4.8989   -0.7550    6.6151 C.3       1 <0>        -0.1296
     14 C8          6.2049   -0.0017    6.2609 C.3       1 <0>        -0.0986
     15 H3          6.4749    0.7555    6.9971 H         1 <0>         0.1093
     16 C9          5.9102    0.5833    4.8541 C.3       1 <0>         0.1318
     17 H4          5.6736    1.6454    4.9171 H         1 <0>         0.0906
     18 C10         7.1650    0.3293    4.0018 C.3       1 <0>         0.1593
     19 H5          6.9166   -0.3078    3.1530 H         1 <0>         0.0960
     20 C11         8.1853   -0.3812    4.9141 C.3       1 <0>        -0.1372
     21 C12         7.3232   -1.0440    6.0256 C.3       1 <0>        -0.1199
     22 N3          7.7155    1.6019    3.5286 N.am      1 <0>        -0.7309
     23 C13         8.4617    1.6378    2.4069 C.2       1 <0>         0.7133
     24 O3          8.6782    0.6140    1.7876 O.2       1 <0>        -0.5718
     25 N4          8.9681    2.8085    1.9715 N.am      1 <0>        -0.5890
     26 C14         8.6172    4.0569    2.6530 C.3       1 <0>         0.0783
     27 C15         9.8299    2.8314    0.8676 C.ar      1 <0>         0.1441
     28 C16         9.3519    2.5043   -0.3942 C.ar      1 <0>        -0.0724
     29 C17        10.2032    2.5281   -1.4816 C.ar      1 <0>        -0.1439
     30 C18        11.5325    2.8778   -1.3139 C.ar      1 <0>         0.1024
     31 C19        12.0112    3.2039   -0.0562 C.ar      1 <0>        -0.1425
     32 C20        11.1618    3.1869    1.0328 C.ar      1 <0>        -0.0903
     33 F1         12.3636    2.9004   -2.3788 F         1 <0>        -0.1354
     34 C21         3.3685   -1.8742    1.8233 C.3       1 <0>        -0.0696
     35 C22         3.9406   -1.3290    0.5132 C.3       1 <0>        -0.1465
     36 C23         4.4333   -2.7105    2.5359 C.3       1 <0>        -0.1554
     37 C24         2.1498   -2.7490    1.5227 C.3       1 <0>        -0.1311
     38 N5         -1.6122    0.2472    1.3480 N.4       1 <0>        -0.4940
     39 C25        -2.5231    1.0494    0.5205 C.3       1 <0>        -0.0505
     40 H6          0.8298    2.5722    1.7095 H         1 <0>         0.1108
     41 H7         -0.8734    2.8311    1.2619 H         1 <0>         0.1000
     42 H8         -0.4654    2.1545    2.8568 H         1 <0>         0.0904
     43 H9          2.3585    0.9438    1.5263 H         1 <0>         0.4178
     44 H10         3.3549   -1.4279    5.2284 H         1 <0>         0.0803
     45 H11         4.9597   -2.1750    4.9599 H         1 <0>         0.0842
     46 H12         4.1644   -0.0774    7.0503 H         1 <0>         0.0789
     47 H13         5.1010   -1.5903    7.2856 H         1 <0>         0.0947
     48 H14         8.7404   -1.1328    4.3528 H         1 <0>         0.0780
     49 H15         8.8667    0.3429    5.3609 H         1 <0>         0.0747
     50 H16         7.8999   -1.2033    6.9367 H         1 <0>         0.0815
     51 H17         6.9051   -1.9832    5.6634 H         1 <0>         0.0732
     52 H18         7.5428    2.4186    4.0226 H         1 <0>         0.3955
     53 H19         9.3363    4.2510    3.4488 H         1 <0>         0.0623
     54 H20         8.6363    4.8791    1.9376 H         1 <0>         0.0802
     55 H21         7.6179    3.9696    3.0795 H         1 <0>         0.0710
     56 H22         8.3153    2.2312   -0.5254 H         1 <0>         0.1310
     57 H23         9.8319    2.2734   -2.4633 H         1 <0>         0.1400
     58 H24        13.0485    3.4757    0.0726 H         1 <0>         0.1422
     59 H25        11.5345    3.4457    2.0129 H         1 <0>         0.1349
     60 H26         4.8088   -0.7058    0.7274 H         1 <0>         0.0691
     61 H27         4.2385   -2.1596   -0.1267 H         1 <0>         0.0647
     62 H28         3.1820   -0.7332    0.0056 H         1 <0>         0.0504
     63 H29         4.0021   -3.1637    3.4284 H         1 <0>         0.0647
     64 H30         4.7885   -3.4936    1.8661 H         1 <0>         0.0725
     65 H31         5.2679   -2.0699    2.8207 H         1 <0>         0.0622
     66 H32         1.3912   -2.1532    1.0151 H         1 <0>         0.0468
     67 H33         2.4477   -3.5796    0.8828 H         1 <0>         0.0619
     68 H34         1.7422   -3.1374    2.4560 H         1 <0>         0.0652
     69 H35        -1.6347   -0.7130    1.0389 H         1 <0>         0.4377
     70 H36        -2.4988    2.0868    0.8544 H         1 <0>         0.1274
     71 H37        -2.2093    0.9958   -0.5220 H         1 <0>         0.1268
     72 H38        -3.5371    0.6610    0.6151 H         1 <0>         0.1339
     73 H39        -1.9027    0.2969    2.3130 H         1 <0>         0.4347
@<TRIPOS>BOND
     1    1    2 1
     2    1   40 1
     3    1   41 1
     4    1   42 1
     5    2    3 1
     6    2    4 1
     7    2   38 1
     8    4    5 2
     9    4    6 am
    10    6    7 1
    11    6   43 1
    12    7    8 1
    13    7    9 1
    14    7   34 1
    15    9   10 2
    16    9   11 am
    17   11   16 1
    18   11   12 1
    19   12   13 1
    20   12   44 1
    21   12   45 1
    22   13   14 1
    23   13   46 1
    24   13   47 1
    25   14   15 1
    26   14   21 1
    27   14   16 1
    28   16   17 1
    29   16   18 1
    30   18   19 1
    31   18   20 1
    32   18   22 1
    33   20   21 1
    34   20   48 1
    35   20   49 1
    36   21   50 1
    37   21   51 1
    38   22   23 am
    39   22   52 1
    40   23   24 2
    41   23   25 am
    42   25   26 1
    43   25   27 1
    44   26   53 1
    45   26   54 1
    46   26   55 1
    47   27   32 ar
    48   27   28 ar
    49   28   29 ar
    50   28   56 1
    51   29   30 ar
    52   29   57 1
    53   30   31 ar
    54   30   33 1
    55   31   32 ar
    56   31   58 1
    57   32   59 1
    58   34   35 1
    59   34   36 1
    60   34   37 1
    61   35   60 1
    62   35   61 1
    63   35   62 1
    64   36   63 1
    65   36   64 1
    66   36   65 1
    67   37   66 1
    68   37   67 1
    69   37   68 1
    70   38   39 1
    71   38   69 1
    72   38   73 1
    73   39   70 1
    74   39   71 1
    75   39   72 1
@<TRIPOS>MOLECULE
CHEMBL459803
   71    74     0     0     0
SMALL
USER_CHARGES

@<TRIPOS>ATOM
      1 C1          0.2426    2.9311    2.2558 C.3       1 <0>        -0.1826
      2 C2         -0.1621    1.6239    1.5716 C.3       1 <0>         0.0048
      3 H1          0.0202    1.7032    0.4999 H         1 <0>         0.1670
      4 C3          0.6515    0.4883    2.1369 C.2       1 <0>         0.5053
      5 O1          0.0970   -0.4420    2.6829 O.2       1 <0>        -0.5197
      6 N1          1.9954    0.5064    2.0356 N.am      1 <0>        -0.6833
      7 C4          2.7863   -0.5976    2.5851 C.3       1 <0>         0.1388
      8 H2          2.3107   -0.9685    3.4930 H         1 <0>         0.1158
      9 C5          4.1744   -0.1085    2.9089 C.2       1 <0>         0.5282
     10 O2          4.7111    0.7107    2.1934 O.2       1 <0>        -0.5166
     11 N2          4.8196   -0.5814    3.9937 N.am      1 <0>        -0.6018
     12 C6          4.3312   -1.6482    4.8854 C.3       1 <0>         0.0878
     13 C7          5.0163   -1.3700    6.2454 C.3       1 <0>        -0.1294
     14 C8          6.4159   -0.8733    5.8056 C.3       1 <0>        -0.0990
     15 H3          6.9050   -0.2532    6.5568 H         1 <0>         0.1092
     16 C9          6.1283   -0.1226    4.4782 C.3       1 <0>         0.1318
     17 H4          6.1294    0.9562    4.6342 H         1 <0>         0.0907
     18 C10         7.2195   -0.5551    3.4844 C.3       1 <0>         0.1436
     19 H5          6.7668   -1.0531    2.6270 H         1 <0>         0.0965
     20 C11         8.1425   -1.5350    4.2369 C.3       1 <0>        -0.1369
     21 C12         7.2615   -2.0990    5.3874 C.3       1 <0>        -0.1195
     22 N3          7.9836    0.6129    3.0394 N.am      1 <0>        -0.7169
     23 C13         8.6176    0.5903    1.8503 C.2       1 <0>         0.5800
     24 O3          8.5554   -0.4003    1.1463 O.2       1 <0>        -0.5323
     25 C14         9.3833    1.7610    1.4042 C.2       1 <0>        -0.1624
     26 C15         9.4715    2.8757    2.1756 C.2       1 <0>        -0.1896
     27 S1         10.4213    3.9477    1.3031 S.3       1 <0>         0.1840
     28 C16        10.7540    2.9715   -0.1372 C.ar      1 <0>        -0.1490
     29 C17        10.0811    1.7611    0.1162 C.ar      1 <0>        -0.0578
     30 C18        10.1650    0.7578   -0.8678 C.ar      1 <0>        -0.0662
     31 C19        10.8838    0.9709   -2.0176 C.ar      1 <0>        -0.1182
     32 C20        11.5424    2.1713   -2.2413 C.ar      1 <0>        -0.0942
     33 C21        11.4687    3.1776   -1.2979 C.ar      1 <0>        -0.0746
     34 C22         2.8705   -1.7264    1.5558 C.3       1 <0>        -0.0695
     35 C23         3.4257   -1.1767    0.2403 C.3       1 <0>        -0.1469
     36 C24         3.7958   -2.8265    2.0798 C.3       1 <0>        -0.1543
     37 C25         1.4742   -2.3049    1.3179 C.3       1 <0>        -0.1310
     38 N4         -1.5893    1.3688    1.8080 N.4       1 <0>        -0.4939
     39 C26        -2.3884    2.4135    1.1537 C.3       1 <0>        -0.0504
     40 H6          1.3016    3.1204    2.0804 H         1 <0>         0.1108
     41 H7         -0.3459    3.7525    1.8470 H         1 <0>         0.1001
     42 H8          0.0603    2.8518    3.3276 H         1 <0>         0.0904
     43 H9          2.4389    1.2503    1.5989 H         1 <0>         0.4179
     44 H10         3.2475   -1.5910    4.9875 H         1 <0>         0.0802
     45 H11         4.6263   -2.6259    4.5046 H         1 <0>         0.0839
     46 H12         4.4844   -0.5956    6.7980 H         1 <0>         0.0789
     47 H13         5.0950   -2.2830    6.8355 H         1 <0>         0.0947
     48 H14         8.4729   -2.3339    3.5730 H         1 <0>         0.0779
     49 H15         8.9991   -1.0069    4.6556 H         1 <0>         0.0751
     50 H16         7.8699   -2.4503    6.2209 H         1 <0>         0.0816
     51 H17         6.6227   -2.8980    5.0112 H         1 <0>         0.0733
     52 H18         8.0331    1.4026    3.6005 H         1 <0>         0.3961
     53 H19         9.0242    3.0375    3.1453 H         1 <0>         0.1890
     54 H20         9.6610   -0.1854   -0.7169 H         1 <0>         0.1426
     55 H21        10.9379    0.1898   -2.7615 H         1 <0>         0.1307
     56 H22        12.1032    2.3211   -3.1520 H         1 <0>         0.1370
     57 H23        11.9785    4.1154   -1.4628 H         1 <0>         0.1347
     58 H24         4.4205   -0.7646    0.4098 H         1 <0>         0.0694
     59 H25         3.4857   -1.9809   -0.4930 H         1 <0>         0.0646
     60 H26         2.7665   -0.3930   -0.1330 H         1 <0>         0.0506
     61 H27         3.4477   -3.1587    3.0578 H         1 <0>         0.0642
     62 H28         3.7890   -3.6677    1.3867 H         1 <0>         0.0727
     63 H29         4.8099   -2.4367    2.1682 H         1 <0>         0.0613
     64 H30         0.8150   -1.5212    0.9445 H         1 <0>         0.0467
     65 H31         1.5342   -3.1091    0.5845 H         1 <0>         0.0619
     66 H32         1.0786   -2.6965    2.2550 H         1 <0>         0.0653
     67 H33        -1.8375    0.4678    1.4277 H         1 <0>         0.4377
     68 H34        -2.1203    3.3868    1.5646 H         1 <0>         0.1274
     69 H35        -2.1903    2.4045    0.0818 H         1 <0>         0.1268
     70 H36        -3.4474    2.2242    1.3291 H         1 <0>         0.1339
     71 H37        -1.7726    1.3771    2.8002 H         1 <0>         0.4347
@<TRIPOS>BOND
     1    1    2 1
     2    1   40 1
     3    1   41 1
     4    1   42 1
     5    2    3 1
     6    2    4 1
     7    2   38 1
     8    4    5 2
     9    4    6 am
    10    6    7 1
    11    6   43 1
    12    7    8 1
    13    7    9 1
    14    7   34 1
    15    9   10 2
    16    9   11 am
    17   11   16 1
    18   11   12 1
    19   12   13 1
    20   12   44 1
    21   12   45 1
    22   13   14 1
    23   13   46 1
    24   13   47 1
    25   14   15 1
    26   14   21 1
    27   14   16 1
    28   16   17 1
    29   16   18 1
    30   18   19 1
    31   18   20 1
    32   18   22 1
    33   20   21 1
    34   20   48 1
    35   20   49 1
    36   21   50 1
    37   21   51 1
    38   22   23 am
    39   22   52 1
    40   23   24 2
    41   23   25 1
    42   25   29 1
    43   25   26 2
    44   26   27 1
    45   26   53 1
    46   27   28 1
    47   28   33 ar
    48   28   29 ar
    49   29   30 ar
    50   30   31 ar
    51   30   54 1
    52   31   32 ar
    53   31   55 1
    54   32   33 ar
    55   32   56 1
    56   33   57 1
    57   34   35 1
    58   34   36 1
    59   34   37 1
    60   35   58 1
    61   35   59 1
    62   35   60 1
    63   36   61 1
    64   36   62 1
    65   36   63 1
    66   37   64 1
    67   37   65 1
    68   37   66 1
    69   38   39 1
    70   38   67 1
    71   38   71 1
    72   39   68 1
    73   39   69 1
    74   39   70 1
@<TRIPOS>MOLECULE
CHEMBL459597
   73    75     0     0     0
SMALL
USER_CHARGES

@<TRIPOS>ATOM
      1 C1          1.6006    2.2216   -0.7453 C.3       1 <0>        -0.1825
      2 C2          1.1613    0.7984   -0.3955 C.3       1 <0>         0.0049
      3 H1          0.1087    0.8022   -0.1128 H         1 <0>         0.1669
      4 C3          1.3568   -0.0961   -1.5924 C.2       1 <0>         0.5052
      5 O1          2.0952   -1.0554   -1.5184 O.2       1 <0>        -0.5197
      6 N1          0.7110    0.1698   -2.7451 N.am      1 <0>        -0.6831
      7 C4          0.9010   -0.6998   -3.9087 C.3       1 <0>         0.1387
      8 H2          1.9291   -1.0613   -3.9281 H         1 <0>         0.1159
      9 C5          0.6180    0.0776   -5.1683 C.2       1 <0>         0.5288
     10 O2         -0.2556    0.9188   -5.1784 O.2       1 <0>        -0.5171
     11 N2          1.3356   -0.1621   -6.2837 N.am      1 <0>        -0.6020
     12 C6          2.3449   -1.2240   -6.4431 C.3       1 <0>         0.0877
     13 C7          3.2996   -0.6989   -7.5427 C.3       1 <0>        -0.1295
     14 C8          2.3214    0.0269   -8.4993 C.3       1 <0>        -0.0986
     15 H3          2.8049    0.7943   -9.1038 H         1 <0>         0.1092
     16 C9          1.2359    0.5881   -7.5427 C.3       1 <0>         0.1318
     17 H4          1.3821    1.6548   -7.3729 H         1 <0>         0.0904
     18 C10        -0.1227    0.2977   -8.2025 C.3       1 <0>         0.1596
     19 H5         -0.7175   -0.3524   -7.5608 H         1 <0>         0.0955
     20 C11         0.1751   -0.4102   -9.5398 C.3       1 <0>        -0.1372
     21 C12         1.5849   -1.0372   -9.3466 C.3       1 <0>        -0.1197
     22 N3         -0.8394    1.5518   -8.4470 N.am      1 <0>        -0.7320
     23 C13        -2.1845    1.5536   -8.5326 C.2       1 <0>         0.7132
     24 O3         -2.8030    0.5144   -8.4070 O.2       1 <0>        -0.5725
     25 N4         -2.8438    2.7074   -8.7576 N.am      1 <0>        -0.5895
     26 C14        -2.1098    3.9745   -8.7986 C.3       1 <0>         0.0795
     27 C15        -4.2296    2.6949   -8.9519 C.ar      1 <0>         0.1535
     28 C16        -5.0758    2.3501   -7.9061 C.ar      1 <0>        -0.1021
     29 C17        -6.4431    2.3392   -8.1010 C.ar      1 <0>        -0.1106
     30 C18        -6.9696    2.6711   -9.3358 C.ar      1 <0>        -0.1174
     31 C19        -6.1297    3.0144  -10.3793 C.ar      1 <0>        -0.1092
     32 C20        -4.7618    3.0328  -10.1892 C.ar      1 <0>        -0.1206
     33 C21        -0.0564   -1.8898   -3.8178 C.3       1 <0>        -0.0695
     34 C22        -1.4903   -1.3799   -3.6601 C.3       1 <0>        -0.1465
     35 C23         0.0494   -2.7281   -5.0933 C.3       1 <0>        -0.1554
     36 C24         0.3143   -2.7514   -2.6090 C.3       1 <0>        -0.1310
     37 N5          1.9678    0.2988    0.7261 N.4       1 <0>        -0.4940
     38 C25         1.6864    1.0983    1.9259 C.3       1 <0>        -0.0504
     39 H6          2.6533    2.2178   -1.0281 H         1 <0>         0.0904
     40 H7          1.0022    2.5923   -1.5776 H         1 <0>         0.1108
     41 H8          1.4592    2.8686    0.1204 H         1 <0>         0.0999
     42 H9          0.1204    0.9371   -2.8043 H         1 <0>         0.4178
     43 H10         2.8874   -1.3753   -5.5099 H         1 <0>         0.0802
     44 H11         1.8718   -2.1525   -6.7629 H         1 <0>         0.0841
     45 H12         4.0264   -0.0013   -7.1265 H         1 <0>         0.0788
     46 H13         3.8001   -1.5236   -8.0500 H         1 <0>         0.0946
     47 H14        -0.5694   -1.1814   -9.7373 H         1 <0>         0.0777
     48 H15         0.2033    0.3120  -10.3557 H         1 <0>         0.0745
     49 H16         2.0896   -1.1872  -10.3010 H         1 <0>         0.0813
     50 H17         1.5039   -1.9768   -8.8001 H         1 <0>         0.0731
     51 H18        -0.3459    2.3808   -8.5472 H         1 <0>         0.3949
     52 H19        -1.7849    4.1733   -9.8199 H         1 <0>         0.0609
     53 H20        -2.7593    4.7818   -8.4604 H         1 <0>         0.0791
     54 H21        -1.2389    3.9113   -8.1461 H         1 <0>         0.0697
     55 H22        -4.6651    2.0905   -6.9416 H         1 <0>         0.1195
     56 H23        -7.1017    2.0709   -7.2882 H         1 <0>         0.1259
     57 H24        -8.0391    2.6619   -9.4857 H         1 <0>         0.1264
     58 H25        -6.5440    3.2728  -11.3426 H         1 <0>         0.1282
     59 H26        -4.1065    3.3056  -11.0032 H         1 <0>         0.1231
     60 H27        -1.7543   -0.7660   -4.5212 H         1 <0>         0.0692
     61 H28        -2.1723   -2.2276   -3.5953 H         1 <0>         0.0646
     62 H29        -1.5656   -0.7826   -2.7514 H         1 <0>         0.0504
     63 H30         1.0491   -3.1566   -5.1645 H         1 <0>         0.0647
     64 H31        -0.6883   -3.5299   -5.0633 H         1 <0>         0.0725
     65 H32        -0.1371   -2.0949   -5.9607 H         1 <0>         0.0623
     66 H33         0.2389   -2.1542   -1.7003 H         1 <0>         0.0468
     67 H34        -0.3677   -3.5991   -2.5442 H         1 <0>         0.0618
     68 H35         1.3359   -3.1146   -2.7213 H         1 <0>         0.0652
     69 H36         1.7356   -0.6670    0.9034 H         1 <0>         0.4377
     70 H37         1.9373    2.1416    1.7344 H         1 <0>         0.1274
     71 H38         0.6284    1.0190    2.1755 H         1 <0>         0.1268
     72 H39         2.2848    0.7276    2.7581 H         1 <0>         0.1338
     73 H40         2.9473    0.3722    0.4951 H         1 <0>         0.4347
@<TRIPOS>BOND
     1    1    2 1
     2    1   39 1
     3    1   40 1
     4    1   41 1
     5    2    3 1
     6    2    4 1
     7    2   37 1
     8    4    5 2
     9    4    6 am
    10    6    7 1
    11    6   42 1
    12    7    8 1
    13    7    9 1
    14    7   33 1
    15    9   10 2
    16    9   11 am
    17   11   16 1
    18   11   12 1
    19   12   13 1
    20   12   43 1
    21   12   44 1
    22   13   14 1
    23   13   45 1
    24   13   46 1
    25   14   15 1
    26   14   21 1
    27   14   16 1
    28   16   17 1
    29   16   18 1
    30   18   19 1
    31   18   20 1
    32   18   22 1
    33   20   21 1
    34   20   47 1
    35   20   48 1
    36   21   49 1
    37   21   50 1
    38   22   23 am
    39   22   51 1
    40   23   24 2
    41   23   25 am
    42   25   26 1
    43   25   27 1
    44   26   52 1
    45   26   53 1
    46   26   54 1
    47   27   32 ar
    48   27   28 ar
    49   28   29 ar
    50   28   55 1
    51   29   30 ar
    52   29   56 1
    53   30   31 ar
    54   30   57 1
    55   31   32 ar
    56   31   58 1
    57   32   59 1
    58   33   34 1
    59   33   35 1
    60   33   36 1
    61   34   60 1
    62   34   61 1
    63   34   62 1
    64   35   63 1
    65   35   64 1
    66   35   65 1
    67   36   66 1
    68   36   67 1
    69   36   68 1
    70   37   38 1
    71   37   69 1
    72   37   73 1
    73   38   70 1
    74   38   71 1
    75   38   72 1
@<TRIPOS>MOLECULE
CHEMBL472832
   80    84     0     0     0
SMALL
USER_CHARGES

@<TRIPOS>ATOM
      1 C1         -0.0187    1.5258    0.0104 C.3       1 <0>        -0.1844
      2 C2          0.0021   -0.0041    0.0020 C.3       1 <0>         0.0034
      3 H1          0.5123   -0.3556   -0.8948 H         1 <0>         0.1663
      4 C3          0.7309   -0.5033    1.2229 C.2       1 <0>         0.5040
      5 O1          0.1587   -1.2128    2.0229 O.2       1 <0>        -0.5182
      6 N1          2.0187   -0.1613    1.4257 N.am      1 <0>        -0.6856
      7 C4          2.7212   -0.6424    2.6023 C.3       1 <0>         0.1405
      8 H2          1.9563   -0.6685    3.4176 H         1 <0>         0.1272
      9 C5          3.1958   -2.0598    2.4504 C.3       1 <0>        -0.0953
     10 C6          4.4541   -2.3349    1.7511 C.2       1 <0>        -0.1485
     11 C7          5.1855   -1.6821    0.9171 C.2       1 <0>        -0.1549
     12 C8          4.8008   -0.3981    0.2459 C.3       1 <0>        -0.1002
     13 C9          5.2433    0.8005    1.0427 C.3       1 <0>         0.1516
     14 H3          6.3135    0.6501    1.2938 H         1 <0>         0.0811
     15 C10         5.1660    2.1012    0.2207 C.3       1 <0>        -0.0943
     16 H4          6.0454    2.1976   -0.4172 H         1 <0>         0.1056
     17 C11         5.1590    3.2046    1.3016 C.3       1 <0>        -0.1287
     18 C12         4.8926    2.4698    2.6312 C.3       1 <0>         0.1161
     19 H5          5.7846    2.4771    3.2605 H         1 <0>         0.1073
     20 N2          4.5471    1.0638    2.2810 N.am      1 <0>        -0.6236
     21 C13         3.7778    0.3012    3.0712 C.2       1 <0>         0.5724
     22 O2          3.9835    0.3614    4.2872 O.2       1 <0>        -0.4986
     23 C14         3.7421    3.1238    3.3571 C.2       1 <0>         0.5158
     24 O3          2.7348    2.4906    3.5919 O.2       1 <0>        -0.5229
     25 N3          3.8342    4.4115    3.7442 N.am      1 <0>        -0.7151
     26 C15         2.7176    5.0462    4.4487 C.3       1 <0>         0.1950
     27 H6          1.7778    4.6545    4.0595 H         1 <0>         0.0952
     28 C16         2.7685    6.5551    4.2173 C.3       1 <0>        -0.1261
     29 C17         1.7324    7.2198    5.1313 C.3       1 <0>        -0.1149
     30 C18         2.2170    7.1007    6.5749 C.3       1 <0>        -0.0856
     31 C19         2.5812    5.6746    6.8951 C.ar      1 <0>        -0.0672
     32 C20         2.8154    4.7329    5.9188 C.ar      1 <0>        -0.1066
     33 C21         3.1544    3.4362    6.2825 C.ar      1 <0>        -0.1053
     34 C22         3.2554    3.0847    7.6129 C.ar      1 <0>        -0.1255
     35 C23         3.0170    4.0302    8.5926 C.ar      1 <0>        -0.1103
     36 C24         2.6810    5.3177    8.2335 C.ar      1 <0>        -0.1268
     37 C25         3.8886    2.1657   -0.6141 C.3       1 <0>        -0.0749
     38 C26         3.9208    3.3932   -1.4877 C.ar      1 <0>        -0.0897
     39 C27         3.4065    4.5881   -1.0201 C.ar      1 <0>        -0.1192
     40 C28         3.4361    5.7141   -1.8214 C.ar      1 <0>        -0.1141
     41 C29         3.9804    5.6453   -3.0902 C.ar      1 <0>        -0.1164
     42 C30         4.4956    4.4507   -3.5575 C.ar      1 <0>        -0.1129
     43 C31         4.4699    3.3258   -2.7546 C.ar      1 <0>        -0.1145
     44 N4         -1.3761   -0.5125    0.0124 N.4       1 <0>        -0.4940
     45 C32        -2.0500   -0.1262   -1.2343 C.3       1 <0>        -0.0508
     46 H7          1.0039    1.9031    0.0027 H         1 <0>         0.1066
     47 H8         -0.5459    1.8868   -0.8726 H         1 <0>         0.1014
     48 H9         -0.5289    1.8773    0.9072 H         1 <0>         0.0938
     49 H10         2.4764    0.4061    0.7859 H         1 <0>         0.4061
     50 H11         3.2633   -2.4977    3.4580 H         1 <0>         0.1019
     51 H12         2.3974   -2.6230    1.9421 H         1 <0>         0.0907
     52 H13         4.8788   -3.3298    1.9914 H         1 <0>         0.1043
     53 H14         6.1703   -2.0985    0.6765 H         1 <0>         0.1198
     54 H15         5.3289   -0.3695   -0.7303 H         1 <0>         0.0958
     55 H16         3.7449   -0.3888    0.0170 H         1 <0>         0.0668
     56 H17         6.1233    3.7139    1.3314 H         1 <0>         0.0965
     57 H18         4.3653    3.9268    1.0987 H         1 <0>         0.0891
     58 H19         4.6399    4.9180    3.5564 H         1 <0>         0.4047
     59 H20         3.7636    6.9298    4.4570 H         1 <0>         0.0752
     60 H21         2.5340    6.7749    3.1758 H         1 <0>         0.0746
     61 H22         1.6285    8.2715    4.8645 H         1 <0>         0.0773
     62 H23         0.7715    6.7166    5.0239 H         1 <0>         0.0678
     63 H24         3.0924    7.7351    6.7137 H         1 <0>         0.0794
     64 H25         1.4252    7.4293    7.2481 H         1 <0>         0.0785
     65 H26         3.3402    2.6967    5.5176 H         1 <0>         0.1340
     66 H27         3.5194    2.0743    7.8879 H         1 <0>         0.1198
     67 H28         3.0924    3.7605    9.6357 H         1 <0>         0.1226
     68 H29         2.4952    6.0556    8.9998 H         1 <0>         0.1222
     69 H30         3.8183    1.2761   -1.2400 H         1 <0>         0.0789
     70 H31         3.0240    2.2135    0.0478 H         1 <0>         0.0624
     71 H32         2.9812    4.6418   -0.0288 H         1 <0>         0.1165
     72 H33         3.0336    6.6474   -1.4563 H         1 <0>         0.1228
     73 H34         4.0029    6.5249   -3.7166 H         1 <0>         0.1241
     74 H35         4.9205    4.3969   -4.5490 H         1 <0>         0.1246
     75 H36         4.8757    2.3933   -3.1183 H         1 <0>         0.1222
     76 H37        -1.3629   -1.5185    0.0898 H         1 <0>         0.4381
     77 H38        -2.0643    0.9605   -1.3179 H         1 <0>         0.1274
     78 H39        -1.5132   -0.5489   -2.0836 H         1 <0>         0.1269
     79 H40        -3.0726   -0.5034   -1.2266 H         1 <0>         0.1345
     80 H41        -1.8730   -0.1212    0.7986 H         1 <0>         0.4361
@<TRIPOS>BOND
     1    1    2 1
     2    1   46 1
     3    1   47 1
     4    1   48 1
     5    2    3 1
     6    2    4 1
     7    2   44 1
     8    4    5 2
     9    4    6 am
    10    6    7 1
    11    6   49 1
    12    7    8 1
    13    7   21 1
    14    7    9 1
    15    9   10 1
    16    9   50 1
    17    9   51 1
    18   10   11 2
    19   10   52 1
    20   11   12 1
    21   11   53 1
    22   12   13 1
    23   12   54 1
    24   12   55 1
    25   13   14 1
    26   13   20 1
    27   13   15 1
    28   15   16 1
    29   15   17 1
    30   15   37 1
    31   17   18 1
    32   17   56 1
    33   17   57 1
    34   18   19 1
    35   18   20 1
    36   18   23 1
    37   20   21 am
    38   21   22 2
    39   23   24 2
    40   23   25 am
    41   25   26 1
    42   25   58 1
    43   26   27 1
    44   26   32 1
    45   26   28 1
    46   28   29 1
    47   28   59 1
    48   28   60 1
    49   29   30 1
    50   29   61 1
    51   29   62 1
    52   30   31 1
    53   30   63 1
    54   30   64 1
    55   31   36 ar
    56   31   32 ar
    57   32   33 ar
    58   33   34 ar
    59   33   65 1
    60   34   35 ar
    61   34   66 1
    62   35   36 ar
    63   35   67 1
    64   36   68 1
    65   37   38 1
    66   37   69 1
    67   37   70 1
    68   38   43 ar
    69   38   39 ar
    70   39   40 ar
    71   39   71 1
    72   40   41 ar
    73   40   72 1
    74   41   42 ar
    75   41   73 1
    76   42   43 ar
    77   42   74 1
    78   43   75 1
    79   44   45 1
    80   44   76 1
    81   44   80 1
    82   45   77 1
    83   45   78 1
    84   45   79 1
@<TRIPOS>MOLECULE
CHEMBL515347
   73    77     0     0     0
SMALL
USER_CHARGES

@<TRIPOS>ATOM
      1 C1         -0.0187    1.5258    0.0104 C.3       1 <0>        -0.1790
      2 C2          0.0021   -0.0041    0.0020 C.3       1 <0>         0.0076
      3 H1         -1.0205   -0.3814    0.0098 H         1 <0>         0.1659
      4 C3          0.7074   -0.4901   -1.2379 C.2       1 <0>         0.5157
      5 O1          1.7039   -1.1744   -1.1398 O.2       1 <0>        -0.5189
      6 N1          0.2309   -0.1642   -2.4557 N.am      1 <0>        -0.6805
      7 C4          0.9167   -0.6367   -3.6611 C.3       1 <0>         0.1527
      8 H2          1.3208   -1.6312   -3.4725 H         1 <0>         0.1214
      9 C5         -0.0778   -0.7167   -4.7929 C.3       1 <0>        -0.0855
     10 C6          0.4265   -1.4041   -6.0234 C.ar      1 <0>        -0.0662
     11 C7         -0.5578   -2.2193   -6.6145 C.ar      1 <0>        -0.1209
     12 C8         -0.2999   -2.9842   -7.7231 C.ar      1 <0>        -0.1108
     13 C9          0.9678   -2.9642   -8.2761 C.ar      1 <0>        -0.1073
     14 C10         1.9246   -2.1563   -7.7139 C.ar      1 <0>        -0.1162
     15 C11         1.6501   -1.3479   -6.5983 C.ar      1 <0>        -0.0779
     16 C12         2.8045   -0.4527   -6.2439 C.3       1 <0>         0.1743
     17 H3          3.6834   -1.0652   -6.0426 H         1 <0>         0.0910
     18 C13         3.0688    0.4148   -7.5048 C.3       1 <0>        -0.1232
     19 C14         3.7344    1.6883   -6.9546 C.3       1 <0>        -0.1303
     20 C15         3.3588    1.7250   -5.4688 C.3       1 <0>         0.1261
     21 H4          4.2622    1.7902   -4.8624 H         1 <0>         0.1052
     22 N2          2.6223    0.4909   -5.1569 N.am      1 <0>        -0.5870
     23 C16         2.0345    0.2879   -3.9753 C.2       1 <0>         0.5396
     24 O2          2.4569    0.9482   -3.0498 O.2       1 <0>        -0.5289
     25 C17         2.4764    2.9159   -5.1965 C.2       1 <0>         0.5221
     26 O3          1.3496    2.7529   -4.7787 O.2       1 <0>        -0.5230
     27 N3          2.9395    4.1622   -5.4172 N.am      1 <0>        -0.7195
     28 C18         2.0818    5.3200   -5.1524 C.3       1 <0>         0.2369
     29 C19         2.9395    6.5278   -4.8758 C.ar      1 <0>        -0.0930
     30 C20         4.0840    6.7477   -5.6191 C.ar      1 <0>        -0.1116
     31 C21         4.8708    7.8556   -5.3654 C.ar      1 <0>        -0.1125
     32 C22         4.5127    8.7440   -4.3687 C.ar      1 <0>        -0.1130
     33 C23         3.3676    8.5246   -3.6260 C.ar      1 <0>        -0.1134
     34 C24         2.5786    7.4190   -3.8826 C.ar      1 <0>        -0.1048
     35 C25         1.2120    5.5860   -6.3540 C.ar      1 <0>        -0.0919
     36 C26         1.7343    5.4572   -7.6274 C.ar      1 <0>        -0.1041
     37 C27         0.9365    5.7013   -8.7296 C.ar      1 <0>        -0.1180
     38 C28        -0.3837    6.0736   -8.5584 C.ar      1 <0>        -0.1153
     39 C29        -0.9062    6.2015   -7.2851 C.ar      1 <0>        -0.1166
     40 C30        -0.1096    5.9533   -6.1829 C.ar      1 <0>        -0.1026
     41 N4          0.7126   -0.4907    1.1921 N.4       1 <0>        -0.4948
     42 C31        -0.0398   -0.1189    2.3978 C.3       1 <0>        -0.0495
     43 H5          1.0039    1.9031    0.0027 H         1 <0>         0.0920
     44 H6         -0.5459    1.8868   -0.8726 H         1 <0>         0.1098
     45 H7         -0.5289    1.8773    0.9072 H         1 <0>         0.0966
     46 H8         -0.5660    0.3831   -2.5342 H         1 <0>         0.4139
     47 H9         -0.9609   -1.2485   -4.4386 H         1 <0>         0.0938
     48 H10        -0.3758    0.2967   -5.0620 H         1 <0>         0.0931
     49 H11        -1.5467   -2.2431   -6.1810 H         1 <0>         0.1221
     50 H12        -1.0769   -3.5949   -8.1587 H         1 <0>         0.1290
     51 H13         1.2011   -3.5745   -9.1360 H         1 <0>         0.1312
     52 H14         2.9164   -2.1421   -8.1411 H         1 <0>         0.1271
     53 H15         3.7416   -0.1020   -8.1892 H         1 <0>         0.0956
     54 H16         2.1307    0.6595   -8.0029 H         1 <0>         0.0839
     55 H17         4.8167    1.6298   -7.0700 H         1 <0>         0.0959
     56 H18         3.3457    2.5694   -7.4651 H         1 <0>         0.0885
     57 H19         3.8408    4.2927   -5.7513 H         1 <0>         0.4016
     58 H20         1.4523    5.1153   -4.2864 H         1 <0>         0.1011
     59 H21         4.3638    6.0536   -6.3979 H         1 <0>         0.1184
     60 H22         5.7654    8.0270   -5.9457 H         1 <0>         0.1267
     61 H23         5.1277    9.6092   -4.1700 H         1 <0>         0.1261
     62 H24         3.0881    9.2185   -2.8470 H         1 <0>         0.1263
     63 H25         1.6820    7.2496   -3.3048 H         1 <0>         0.1221
     64 H26         2.7657    5.1663   -7.7612 H         1 <0>         0.1150
     65 H27         1.3447    5.6013   -9.7245 H         1 <0>         0.1232
     66 H28        -1.0068    6.2650   -9.4196 H         1 <0>         0.1235
     67 H29        -1.9376    6.4927   -7.1513 H         1 <0>         0.1237
     68 H30        -0.5189    6.0496   -5.1881 H         1 <0>         0.1191
     69 H31         0.7982   -1.4950    1.1455 H         1 <0>         0.4367
     70 H32        -0.1324    0.9660    2.4481 H         1 <0>         0.1269
     71 H33        -1.0328   -0.5668    2.3589 H         1 <0>         0.1263
     72 H34         0.4873   -0.4799    3.2808 H         1 <0>         0.1327
     73 H35         1.6317   -0.0761    1.2281 H         1 <0>         0.4357
@<TRIPOS>BOND
     1    1    2 1
     2    1   43 1
     3    1   44 1
     4    1   45 1
     5    2    3 1
     6    2    4 1
     7    2   41 1
     8    4    5 2
     9    4    6 am
    10    6    7 1
    11    6   46 1
    12    7    8 1
    13    7   23 1
    14    7    9 1
    15    9   10 1
    16    9   47 1
    17    9   48 1
    18   10   15 ar
    19   10   11 ar
    20   11   12 ar
    21   11   49 1
    22   12   13 ar
    23   12   50 1
    24   13   14 ar
    25   13   51 1
    26   14   15 ar
    27   14   52 1
    28   15   16 1
    29   16   17 1
    30   16   22 1
    31   16   18 1
    32   18   19 1
    33   18   53 1
    34   18   54 1
    35   19   20 1
    36   19   55 1
    37   19   56 1
    38   20   21 1
    39   20   22 1
    40   20   25 1
    41   22   23 am
    42   23   24 2
    43   25   26 2
    44   25   27 am
    45   27   28 1
    46   27   57 1
    47   28   29 1
    48   28   35 1
    49   28   58 1
    50   29   34 ar
    51   29   30 ar
    52   30   31 ar
    53   30   59 1
    54   31   32 ar
    55   31   60 1
    56   32   33 ar
    57   32   61 1
    58   33   34 ar
    59   33   62 1
    60   34   63 1
    61   35   40 ar
    62   35   36 ar
    63   36   37 ar
    64   36   64 1
    65   37   38 ar
    66   37   65 1
    67   38   39 ar
    68   38   66 1
    69   39   40 ar
    70   39   67 1
    71   40   68 1
    72   41   42 1
    73   41   69 1
    74   41   73 1
    75   42   70 1
    76   42   71 1
    77   42   72 1
@<TRIPOS>MOLECULE
CHEMBL573550
   73    76     0     0     0
SMALL
USER_CHARGES

@<TRIPOS>ATOM
      1 C1         -0.0187    1.5258    0.0104 C.3       1 <0>        -0.1699
      2 C2          0.0021   -0.0041    0.0020 C.3       1 <0>        -0.1423
      3 C3          0.7182   -0.4975   -1.2568 C.3       1 <0>         0.0107
      4 H1          1.7103   -0.0491   -1.3098 H         1 <0>         0.1646
      5 C4          0.8473   -1.9981   -1.2057 C.2       1 <0>         0.5019
      6 O1          0.0734   -2.6948   -1.8275 O.2       1 <0>        -0.4972
      7 N1          1.8227   -2.5659   -0.4690 N.am      1 <0>        -0.6890
      8 C5          1.9479   -4.0218   -0.4195 C.3       1 <0>         0.1509
      9 H2          1.6698   -4.4194   -1.4083 H         1 <0>         0.1263
     10 C6          3.3875   -4.4329   -0.1289 C.3       1 <0>        -0.1016
     11 H3          3.4014   -5.4428    0.2890 H         1 <0>         0.1078
     12 C7          4.0513   -3.4639    0.8436 C.3       1 <0>        -0.1198
     13 C8          3.2649   -3.3608    2.1453 C.3       1 <0>        -0.1379
     14 C9          2.6383   -4.7114    2.4861 C.3       1 <0>         0.1272
     15 H4          3.2846   -5.5181    2.1349 H         1 <0>         0.0911
     16 C10         2.4620   -4.8188    4.0106 C.3       1 <0>        -0.1269
     17 C11         1.1277   -5.5699    4.1817 C.3       1 <0>        -0.1274
     18 C12         0.3420   -5.2440    2.9009 C.3       1 <0>         0.1179
     19 H5         -0.2003   -6.1291    2.5612 H         1 <0>         0.1093
     20 N2          1.3122   -4.8256    1.8736 N.am      1 <0>        -0.5804
     21 C13         0.9940   -4.5869    0.5900 C.2       1 <0>         0.5259
     22 O2         -0.1354   -4.8528    0.2235 O.2       1 <0>        -0.5109
     23 C14        -0.6347   -4.1264    3.1785 C.2       1 <0>         0.5202
     24 O3         -0.5422   -3.0770    2.5776 O.2       1 <0>        -0.5283
     25 N3         -1.6093   -4.2952    4.0940 N.am      1 <0>        -0.7204
     26 C15        -2.5570   -3.2109    4.3633 C.3       1 <0>         0.2368
     27 C16        -3.6840   -3.2692    3.3647 C.ar      1 <0>        -0.0897
     28 C17        -4.2126   -4.4901    2.9894 C.ar      1 <0>        -0.0991
     29 C18        -5.2464   -4.5436    2.0733 C.ar      1 <0>        -0.1161
     30 C19        -5.7521   -3.3761    1.5329 C.ar      1 <0>        -0.1161
     31 C20        -5.2242   -2.1550    1.9088 C.ar      1 <0>        -0.1205
     32 C21        -4.1932   -2.1013    2.8281 C.ar      1 <0>        -0.1049
     33 C22        -3.1117   -3.3630    5.7562 C.ar      1 <0>        -0.0947
     34 C23        -3.4244   -4.6187    6.2424 C.ar      1 <0>        -0.1122
     35 C24        -3.9332   -4.7582    7.5201 C.ar      1 <0>        -0.1120
     36 C25        -4.1289   -3.6421    8.3118 C.ar      1 <0>        -0.1121
     37 C26        -3.8153   -2.3865    7.8260 C.ar      1 <0>        -0.1127
     38 C27        -3.3024   -2.2473    6.5499 C.ar      1 <0>        -0.1045
     39 C28         4.1804   -4.4439   -1.4441 C.3       1 <0>         0.0817
     40 O4          5.4986   -4.9393   -1.2015 O.3       1 <0>        -0.5669
     41 N4         -0.0570   -0.1128   -2.4438 N.4       1 <0>        -0.6213
     42 H6          1.0039    1.9031    0.0027 H         1 <0>         0.0751
     43 H7         -0.5459    1.8868   -0.8726 H         1 <0>         0.0551
     44 H8         -0.5289    1.8773    0.9072 H         1 <0>         0.0891
     45 H9          0.5293   -0.3651    0.8851 H         1 <0>         0.1177
     46 H10        -1.0205   -0.3814    0.0098 H         1 <0>         0.0993
     47 H11         2.4416   -2.0086    0.0283 H         1 <0>         0.4119
     48 H12         5.0618   -3.8273    1.0713 H         1 <0>         0.0922
     49 H13         4.1448   -2.4779    0.3880 H         1 <0>         0.0655
     50 H14         3.9408   -3.0664    2.9532 H         1 <0>         0.0883
     51 H15         2.4829   -2.6087    2.0531 H         1 <0>         0.0712
     52 H16         3.2775   -5.3915    4.4502 H         1 <0>         0.0954
     53 H17         2.4033   -3.8293    4.4604 H         1 <0>         0.0811
     54 H18         1.3017   -6.6412    4.2619 H         1 <0>         0.0947
     55 H19         0.5973   -5.2013    5.0597 H         1 <0>         0.0912
     56 H20        -1.6833   -5.1345    4.5746 H         1 <0>         0.4017
     57 H21        -2.0456   -2.2520    4.2786 H         1 <0>         0.1011
     58 H22        -3.8175   -5.4023    3.4116 H         1 <0>         0.1153
     59 H23        -5.6588   -5.4975    1.7796 H         1 <0>         0.1232
     60 H24        -6.5593   -3.4179    0.8166 H         1 <0>         0.1225
     61 H25        -5.6190   -1.2429    1.4863 H         1 <0>         0.1212
     62 H26        -3.7832   -1.1472    3.1246 H         1 <0>         0.1178
     63 H27        -3.2715   -5.4907    5.6238 H         1 <0>         0.1180
     64 H28        -4.1782   -5.7392    7.8996 H         1 <0>         0.1268
     65 H29        -4.5271   -3.7510    9.3098 H         1 <0>         0.1265
     66 H30        -3.9685   -1.5144    8.4445 H         1 <0>         0.1269
     67 H31        -3.0540   -1.2667    6.1717 H         1 <0>         0.1222
     68 H32         3.6776   -5.0873   -2.1661 H         1 <0>         0.0522
     69 H33         4.2405   -3.4304   -1.8407 H         1 <0>         0.0459
     70 H34         6.0571   -4.9741   -1.9901 H         1 <0>         0.3890
     71 H35        -0.1435    0.8919   -2.4780 H         1 <0>         0.4408
     72 H36         0.4152   -0.4382   -3.2739 H         1 <0>         0.4399
     73 H37        -0.9754   -0.5279   -2.3947 H         1 <0>         0.4434
@<TRIPOS>BOND
     1    1    2 1
     2    1   42 1
     3    1   43 1
     4    1   44 1
     5    2    3 1
     6    2   45 1
     7    2   46 1
     8    3    4 1
     9    3    5 1
    10    3   41 1
    11    5    6 2
    12    5    7 am
    13    7    8 1
    14    7   47 1
    15    8    9 1
    16    8   21 1
    17    8   10 1
    18   10   11 1
    19   10   12 1
    20   10   39 1
    21   12   13 1
    22   12   48 1
    23   12   49 1
    24   13   14 1
    25   13   50 1
    26   13   51 1
    27   14   15 1
    28   14   20 1
    29   14   16 1
    30   16   17 1
    31   16   52 1
    32   16   53 1
    33   17   18 1
    34   17   54 1
    35   17   55 1
    36   18   19 1
    37   18   20 1
    38   18   23 1
    39   20   21 am
    40   21   22 2
    41   23   24 2
    42   23   25 am
    43   25   26 1
    44   25   56 1
    45   26   27 1
    46   26   33 1
    47   26   57 1
    48   27   32 ar
    49   27   28 ar
    50   28   29 ar
    51   28   58 1
    52   29   30 ar
    53   29   59 1
    54   30   31 ar
    55   30   60 1
    56   31   32 ar
    57   31   61 1
    58   32   62 1
    59   33   38 ar
    60   33   34 ar
    61   34   35 ar
    62   34   63 1
    63   35   36 ar
    64   35   64 1
    65   36   37 ar
    66   36   65 1
    67   37   38 ar
    68   37   66 1
    69   38   67 1
    70   39   40 1
    71   39   68 1
    72   39   69 1
    73   40   70 1
    74   41   71 1
    75   41   72 1
    76   41   73 1
@<TRIPOS>MOLECULE
CHEMBL487149
   72    75     0     0     0
SMALL
USER_CHARGES

@<TRIPOS>ATOM
      1 C1         -0.0187    1.5258    0.0104 C.3       1 <0>        -0.1696
      2 C2          0.0021   -0.0041    0.0020 C.3       1 <0>        -0.1418
      3 C3         -1.4333   -0.5336    0.0129 C.3       1 <0>         0.0107
      4 H1         -1.9862   -0.1019   -0.8214 H         1 <0>         0.1580
      5 C4         -1.4159   -2.0348   -0.1192 C.2       1 <0>         0.5174
      6 O1         -1.5501   -2.7316    0.8643 O.2       1 <0>        -0.4903
      7 N1         -1.2512   -2.6028   -1.3302 N.am      1 <0>        -0.6964
      8 C5         -1.2343   -4.0620   -1.4586 C.3       1 <0>         0.1465
      9 H2         -1.9438   -4.4683   -0.7191 H         1 <0>         0.1234
     10 C6         -1.7178   -4.4649   -2.8469 C.3       1 <0>        -0.1282
     11 C7         -0.7005   -5.3344   -3.5726 C.3       1 <0>        -0.1340
     12 C8         -0.0028   -4.4563   -4.6038 C.3       1 <0>        -0.1263
     13 C9          0.7150   -3.2970   -3.9243 C.3       1 <0>        -0.1254
     14 C10         1.7770   -3.8163   -2.9718 C.3       1 <0>         0.1494
     15 H3          2.2763   -4.6856   -3.4206 H         1 <0>         0.0815
     16 C11         2.8298   -2.7050   -2.7377 C.3       1 <0>        -0.1297
     17 C12         3.5593   -3.2393   -1.4831 C.3       1 <0>        -0.1288
     18 C13         2.4738   -4.0332   -0.7364 C.3       1 <0>         0.1117
     19 H4          2.8521   -5.0211   -0.4743 H         1 <0>         0.1024
     20 N2          1.2979   -4.1791   -1.6428 N.am      1 <0>        -0.6191
     21 C14         0.1253   -4.5878   -1.1455 C.2       1 <0>         0.5660
     22 O2          0.1727   -5.5226   -0.3475 O.2       1 <0>        -0.5171
     23 C15         2.0758   -3.2889    0.5136 C.2       1 <0>         0.5191
     24 O3          0.9339   -2.9051    0.6532 O.2       1 <0>        -0.5211
     25 N3          2.9893   -3.0504    1.4755 N.am      1 <0>        -0.7180
     26 C16         2.6028   -2.3274    2.6896 C.3       1 <0>         0.2345
     27 C17         3.5316   -2.7033    3.8152 C.ar      1 <0>        -0.0989
     28 C18         4.8845   -2.8532    3.5741 C.ar      1 <0>        -0.1116
     29 C19         5.7366   -3.1979    4.6066 C.ar      1 <0>        -0.1120
     30 C20         5.2358   -3.3923    5.8803 C.ar      1 <0>        -0.1097
     31 C21         3.8831   -3.2415    6.1216 C.ar      1 <0>        -0.1123
     32 C22         3.0317   -2.8926    5.0900 C.ar      1 <0>        -0.1033
     33 C23         2.6903   -0.8438    2.4402 C.ar      1 <0>        -0.0810
     34 C24         3.7355   -0.3284    1.6967 C.ar      1 <0>        -0.0996
     35 C25         3.8158    1.0325    1.4679 C.ar      1 <0>        -0.1107
     36 C26         2.8507    1.8780    1.9823 C.ar      1 <0>        -0.1161
     37 C27         1.8050    1.3625    2.7251 C.ar      1 <0>        -0.1212
     38 C28         1.7224    0.0011    2.9503 C.ar      1 <0>        -0.1199
     39 N4         -2.0833   -0.1607    1.2764 N.4       1 <0>        -0.6215
     40 H5          1.0039    1.9031    0.0027 H         1 <0>         0.0876
     41 H6         -0.5459    1.8868   -0.8726 H         1 <0>         0.0713
     42 H7         -0.5289    1.8773    0.9072 H         1 <0>         0.0529
     43 H8          0.5123   -0.3556   -0.8948 H         1 <0>         0.1082
     44 H9          0.5293   -0.3651    0.8851 H         1 <0>         0.1092
     45 H10        -1.1439   -2.0455   -2.1168 H         1 <0>         0.4025
     46 H11        -2.6611   -5.0085   -2.7606 H         1 <0>         0.0880
     47 H12        -1.8964   -3.5610   -3.4402 H         1 <0>         0.0831
     48 H13         0.0319   -5.7467   -2.8870 H         1 <0>         0.0733
     49 H14        -1.2149   -6.1528   -4.0814 H         1 <0>         0.0802
     50 H15         0.7030   -5.0486   -5.1775 H         1 <0>         0.0740
     51 H16        -0.7600   -4.0514   -5.2796 H         1 <0>         0.0706
     52 H17         1.1953   -2.6801   -4.6932 H         1 <0>         0.0863
     53 H18        -0.0039   -2.6793   -3.3938 H         1 <0>         0.0617
     54 H19         3.5123   -2.6377   -3.5837 H         1 <0>         0.0935
     55 H20         2.3495   -1.7518   -2.5346 H         1 <0>         0.0749
     56 H21         4.3747   -3.9006   -1.7753 H         1 <0>         0.0926
     57 H22         3.9284   -2.4175   -0.8740 H         1 <0>         0.0842
     58 H23         3.9026   -3.3574    1.3638 H         1 <0>         0.4030
     59 H24         1.5800   -2.5908    2.9593 H         1 <0>         0.1031
     60 H25         5.2757   -2.7013    2.5790 H         1 <0>         0.1174
     61 H26         6.7934   -3.3157    4.4181 H         1 <0>         0.1274
     62 H27         5.9014   -3.6623    6.6868 H         1 <0>         0.1274
     63 H28         3.4918   -3.3937    7.1167 H         1 <0>         0.1275
     64 H29         1.9753   -2.7711    5.2793 H         1 <0>         0.1215
     65 H30         4.4895   -0.9890    1.2948 H         1 <0>         0.1177
     66 H31         4.6327    1.4352    0.8875 H         1 <0>         0.1246
     67 H32         2.9138    2.9413    1.8042 H         1 <0>         0.1237
     68 H33         1.0512    2.0231    3.1273 H         1 <0>         0.1209
     69 H34         0.9034   -0.4020    3.5275 H         1 <0>         0.1164
     70 H35        -1.5715   -0.5604    2.0487 H         1 <0>         0.4411
     71 H36        -2.0949    0.8443    1.3648 H         1 <0>         0.4380
     72 H37        -3.0299   -0.5100    1.2835 H         1 <0>         0.4391
@<TRIPOS>BOND
     1    1    2 1
     2    1   40 1
     3    1   41 1
     4    1   42 1
     5    2    3 1
     6    2   43 1
     7    2   44 1
     8    3    4 1
     9    3    5 1
    10    3   39 1
    11    5    6 2
    12    5    7 am
    13    7    8 1
    14    7   45 1
    15    8    9 1
    16    8   21 1
    17    8   10 1
    18   10   11 1
    19   10   46 1
    20   10   47 1
    21   11   12 1
    22   11   48 1
    23   11   49 1
    24   12   13 1
    25   12   50 1
    26   12   51 1
    27   13   14 1
    28   13   52 1
    29   13   53 1
    30   14   15 1
    31   14   20 1
    32   14   16 1
    33   16   17 1
    34   16   54 1
    35   16   55 1
    36   17   18 1
    37   17   56 1
    38   17   57 1
    39   18   19 1
    40   18   20 1
    41   18   23 1
    42   20   21 am
    43   21   22 2
    44   23   24 2
    45   23   25 am
    46   25   26 1
    47   25   58 1
    48   26   27 1
    49   26   33 1
    50   26   59 1
    51   27   32 ar
    52   27   28 ar
    53   28   29 ar
    54   28   60 1
    55   29   30 ar
    56   29   61 1
    57   30   31 ar
    58   30   62 1
    59   31   32 ar
    60   31   63 1
    61   32   64 1
    62   33   38 ar
    63   33   34 ar
    64   34   35 ar
    65   34   65 1
    66   35   36 ar
    67   35   66 1
    68   36   37 ar
    69   36   67 1
    70   37   38 ar
    71   37   68 1
    72   38   69 1
    73   39   70 1
    74   39   71 1
    75   39   72 1
@<TRIPOS>MOLECULE
CHEMBL519053
   82    86     0     0     0
SMALL
USER_CHARGES

@<TRIPOS>ATOM
      1 C1          1.0274   -0.6104   -0.2121 C.3       1 <0>        -0.1667
      2 C2         -0.1267   -0.1971    0.7035 C.3       1 <0>        -0.1358
      3 C3         -1.4555   -0.4020   -0.0267 C.3       1 <0>         0.0078
      4 H1         -1.4343    0.1324   -0.9765 H         1 <0>         0.1496
      5 C4         -1.6670   -1.8720   -0.2820 C.2       1 <0>         0.5181
      6 O1         -2.3998   -2.5137    0.4405 O.2       1 <0>        -0.4791
      7 N1         -1.0418   -2.4737   -1.3133 N.am      1 <0>        -0.7009
      8 C5         -1.3266   -3.8764   -1.6249 C.3       1 <0>         0.1470
      9 H2         -2.3931   -4.0540   -1.4099 H         1 <0>         0.1207
     10 C6         -1.0952   -4.1341   -3.1093 C.3       1 <0>        -0.1285
     11 C7         -0.1049   -5.2667   -3.3418 C.3       1 <0>        -0.1338
     12 C8          1.2229   -4.6365   -3.7430 C.3       1 <0>        -0.1259
     13 C9          1.7428   -3.7286   -2.6356 C.3       1 <0>        -0.1266
     14 C10         1.9795   -4.5246   -1.3649 C.3       1 <0>         0.1496
     15 H3          2.4031   -5.5049   -1.6218 H         1 <0>         0.0812
     16 C11         2.9932   -3.7631   -0.4756 C.3       1 <0>        -0.1338
     17 C12         2.7974   -4.4750    0.8833 C.3       1 <0>        -0.1290
     18 C13         1.3236   -4.9148    0.8593 C.3       1 <0>         0.1126
     19 H4          1.2471   -5.9677    1.1303 H         1 <0>         0.1006
     20 N2          0.8032   -4.7222   -0.5255 N.am      1 <0>        -0.6194
     21 C14        -0.5146   -4.7702   -0.7502 C.2       1 <0>         0.5672
     22 O2         -1.1277   -5.6720   -0.1812 O.2       1 <0>        -0.5161
     23 C15         0.5321   -4.0767    1.8320 C.2       1 <0>         0.5158
     24 O3         -0.3750   -3.3780    1.4322 O.2       1 <0>        -0.5138
     25 N3          0.8329   -4.1043    3.1455 N.am      1 <0>        -0.7198
     26 C16         0.0642   -3.2903    4.0902 C.3       1 <0>         0.2443
     27 C17        -1.1755   -4.0395    4.5061 C.ar      1 <0>        -0.0913
     28 C18        -1.1123   -5.3986    4.7504 C.ar      1 <0>        -0.0990
     29 C19        -2.2494   -6.0859    5.1319 C.ar      1 <0>        -0.1143
     30 C20        -3.4496   -5.4140    5.2694 C.ar      1 <0>        -0.1132
     31 C21        -3.5126   -4.0547    5.0259 C.ar      1 <0>        -0.1175
     32 C22        -2.3746   -3.3667    4.6486 C.ar      1 <0>        -0.1017
     33 C23         0.9072   -3.0004    5.3053 C.ar      1 <0>        -0.0952
     34 C24         1.7254   -3.9835    5.8294 C.ar      1 <0>        -0.1108
     35 C25         2.4987   -3.7176    6.9439 C.ar      1 <0>        -0.1099
     36 C26         2.4540   -2.4683    7.5341 C.ar      1 <0>        -0.1115
     37 C27         1.6364   -1.4849    7.0094 C.ar      1 <0>        -0.1131
     38 C28         0.8664   -1.7495    5.8923 C.ar      1 <0>        -0.1069
     39 N4         -2.5537    0.1142    0.8012 N.4       1 <0>        -0.3747
     40 C29        -3.8445   -0.1253    0.1211 C.3       1 <0>        -0.0097
     41 C30        -4.7071    1.1156    0.4613 C.3       1 <0>        -0.1411
     42 C31        -3.6499    2.2505    0.4293 C.3       1 <0>        -0.1402
     43 C32        -2.3881    1.5663    0.9960 C.3       1 <0>        -0.0152
     44 H5          1.9611   -0.5935    0.3499 H         1 <0>         0.0809
     45 H6          0.8488   -1.6172   -0.5899 H         1 <0>         0.0750
     46 H7          1.0943    0.0850   -1.0488 H         1 <0>         0.0683
     47 H8         -0.1104   -0.8074    1.6065 H         1 <0>         0.0970
     48 H9         -0.0183    0.8534    0.9730 H         1 <0>         0.0942
     49 H10        -0.4032   -1.9778   -1.8493 H         1 <0>         0.4015
     50 H11        -2.0451   -4.3810   -3.5886 H         1 <0>         0.0874
     51 H12        -0.7039   -3.2222   -3.5742 H         1 <0>         0.0820
     52 H13         0.0298   -5.8673   -2.4487 H         1 <0>         0.0737
     53 H14        -0.4630   -5.9056   -4.1521 H         1 <0>         0.0798
     54 H15         1.9495   -5.4124   -3.9625 H         1 <0>         0.0741
     55 H16         1.0610   -4.0357   -4.6413 H         1 <0>         0.0702
     56 H17         2.6909   -3.2834   -2.9605 H         1 <0>         0.0866
     57 H18         1.0345   -2.9249   -2.4559 H         1 <0>         0.0611
     58 H19         4.0086   -3.9032   -0.8437 H         1 <0>         0.0933
     59 H20         2.7347   -2.7101   -0.4064 H         1 <0>         0.0773
     60 H21         3.4487   -5.3462    0.9488 H         1 <0>         0.0919
     61 H22         2.9854   -3.7899    1.7066 H         1 <0>         0.0853
     62 H23         1.5584   -4.6632    3.4652 H         1 <0>         0.4020
     63 H24        -0.2209   -2.3524    3.6136 H         1 <0>         0.0935
     64 H25        -0.1746   -5.9236    4.6430 H         1 <0>         0.1142
     65 H26        -2.2002   -7.1479    5.3221 H         1 <0>         0.1233
     66 H27        -4.3382   -5.9511    5.5667 H         1 <0>         0.1233
     67 H28        -4.4504   -3.5298    5.1330 H         1 <0>         0.1208
     68 H29        -2.4230   -2.3040    4.4620 H         1 <0>         0.1106
     69 H30         1.7603   -4.9595    5.3683 H         1 <0>         0.1185
     70 H31         3.1375   -4.4859    7.3539 H         1 <0>         0.1275
     71 H32         3.0576   -2.2608    8.4053 H         1 <0>         0.1269
     72 H33         1.6013   -0.5090    7.4707 H         1 <0>         0.1260
     73 H34         0.2304   -0.9800    5.4802 H         1 <0>         0.1179
     74 H35        -3.6974   -0.2014   -0.9562 H         1 <0>         0.1249
     75 H36        -4.3138   -1.0308    0.5058 H         1 <0>         0.1423
     76 H37        -5.4754    1.2762   -0.2950 H         1 <0>         0.1175
     77 H38        -5.1506    1.0229    1.4527 H         1 <0>         0.0998
     78 H39        -3.4787    2.5891   -0.5926 H         1 <0>         0.0988
     79 H40        -3.9566    3.0809    1.0653 H         1 <0>         0.1144
     80 H41        -2.2909    1.7892    2.0585 H         1 <0>         0.1339
     81 H42        -1.5052    1.9141    0.4597 H         1 <0>         0.1325
     82 H43        -2.5525   -0.3508    1.6966 H         1 <0>         0.4317
@<TRIPOS>BOND
     1    1    2 1
     2    1   44 1
     3    1   45 1
     4    1   46 1
     5    2    3 1
     6    2   47 1
     7    2   48 1
     8    3    4 1
     9    3    5 1
    10    3   39 1
    11    5    6 2
    12    5    7 am
    13    7    8 1
    14    7   49 1
    15    8    9 1
    16    8   21 1
    17    8   10 1
    18   10   11 1
    19   10   50 1
    20   10   51 1
    21   11   12 1
    22   11   52 1
    23   11   53 1
    24   12   13 1
    25   12   54 1
    26   12   55 1
    27   13   14 1
    28   13   56 1
    29   13   57 1
    30   14   15 1
    31   14   20 1
    32   14   16 1
    33   16   17 1
    34   16   58 1
    35   16   59 1
    36   17   18 1
    37   17   60 1
    38   17   61 1
    39   18   19 1
    40   18   20 1
    41   18   23 1
    42   20   21 am
    43   21   22 2
    44   23   24 2
    45   23   25 am
    46   25   26 1
    47   25   62 1
    48   26   27 1
    49   26   33 1
    50   26   63 1
    51   27   32 ar
    52   27   28 ar
    53   28   29 ar
    54   28   64 1
    55   29   30 ar
    56   29   65 1
    57   30   31 ar
    58   30   66 1
    59   31   32 ar
    60   31   67 1
    61   32   68 1
    62   33   38 ar
    63   33   34 ar
    64   34   35 ar
    65   34   69 1
    66   35   36 ar
    67   35   70 1
    68   36   37 ar
    69   36   71 1
    70   37   38 ar
    71   37   72 1
    72   38   73 1
    73   39   43 1
    74   39   40 1
    75   39   82 1
    76   40   41 1
    77   40   74 1
    78   40   75 1
    79   41   42 1
    80   41   76 1
    81   41   77 1
    82   42   43 1
    83   42   78 1
    84   42   79 1
    85   43   80 1
    86   43   81 1
@<TRIPOS>MOLECULE
CHEMBL487353
   75    78     0     0     0
SMALL
USER_CHARGES

@<TRIPOS>ATOM
      1 C1         -0.2975    1.8645   -0.0524 C.3       1 <0>        -0.1726
      2 C2         -0.1486    0.3443   -0.1416 C.3       1 <0>        -0.1344
      3 C3         -1.5178   -0.3138    0.0402 C.3       1 <0>         0.0071
      4 H1         -2.2201    0.1032   -0.6817 H         1 <0>         0.1551
      5 C4         -1.3942   -1.7995   -0.1798 C.2       1 <0>         0.5191
      6 O1         -1.3255   -2.5496    0.7708 O.2       1 <0>        -0.4864
      7 N1         -1.3601   -2.2947   -1.4328 N.am      1 <0>        -0.6973
      8 C5         -1.2399   -3.7389   -1.6466 C.3       1 <0>         0.1473
      9 H2         -1.7980   -4.2413   -0.8395 H         1 <0>         0.1224
     10 C6         -1.8842   -4.1208   -2.9742 C.3       1 <0>        -0.1281
     11 C7         -0.9138   -4.8602   -3.8848 C.3       1 <0>        -0.1340
     12 C8         -0.4490   -3.8763   -4.9512 C.3       1 <0>        -0.1261
     13 C9          0.2602   -2.6885   -4.3132 C.3       1 <0>        -0.1254
     14 C10         1.4888   -3.1515   -3.5511 C.3       1 <0>         0.1494
     15 H3          1.9887   -3.9504   -4.1153 H         1 <0>         0.0811
     16 C11         2.4677   -1.9606   -3.4034 C.3       1 <0>        -0.1300
     17 C12         3.4136   -2.4826   -2.2968 C.3       1 <0>        -0.1293
     18 C13         2.5182   -3.4052   -1.4523 C.3       1 <0>         0.1121
     19 H4          3.0119   -4.3654   -1.3036 H         1 <0>         0.1014
     20 N2          1.2396   -3.6164   -2.1914 N.am      1 <0>        -0.6196
     21 C14         0.1899   -4.1523   -1.5586 C.2       1 <0>         0.5660
     22 O2          0.4307   -5.1141   -0.8308 O.2       1 <0>        -0.5154
     23 C15         2.2450   -2.7577   -0.1177 C.2       1 <0>         0.5186
     24 O3          1.1073   -2.4862    0.2030 O.2       1 <0>        -0.5207
     25 N3          3.2651   -2.4808    0.7184 N.am      1 <0>        -0.7188
     26 C16         2.9997   -1.8519    2.0147 C.3       1 <0>         0.2442
     27 C17         2.6494   -2.9132    3.0256 C.ar      1 <0>        -0.0927
     28 C18         3.3370   -4.1124    3.0353 C.ar      1 <0>        -0.0991
     29 C19         3.0156   -5.0859    3.9626 C.ar      1 <0>        -0.1140
     30 C20         2.0070   -4.8601    4.8804 C.ar      1 <0>        -0.1127
     31 C21         1.3200   -3.6606    4.8713 C.ar      1 <0>        -0.1172
     32 C22         1.6442   -2.6854    3.9468 C.ar      1 <0>        -0.1025
     33 C23         4.2274   -1.1076    2.4727 C.ar      1 <0>        -0.0960
     34 C24         5.4814   -1.6544    2.2740 C.ar      1 <0>        -0.1108
     35 C25         6.6076   -0.9717    2.6942 C.ar      1 <0>        -0.1097
     36 C26         6.4798    0.2580    3.3125 C.ar      1 <0>        -0.1111
     37 C27         5.2259    0.8052    3.5104 C.ar      1 <0>        -0.1130
     38 C28         4.1000    0.1245    3.0864 C.ar      1 <0>        -0.1068
     39 N4         -2.0065   -0.0593    1.4019 N.4       1 <0>        -0.4936
     40 C29        -3.3782   -0.5684    1.5330 C.3       1 <0>        -0.0531
     41 H5          0.6549    2.3375   -0.2915 H         1 <0>         0.0871
     42 H6         -1.0564    2.1974   -0.7605 H         1 <0>         0.0727
     43 H7         -0.5972    2.1415    0.9583 H         1 <0>         0.0558
     44 H8          0.2570    0.0756   -1.1170 H         1 <0>         0.1103
     45 H9          0.5272   -0.0011    0.6407 H         1 <0>         0.0979
     46 H10        -1.4150   -1.6948   -2.1931 H         1 <0>         0.4019
     47 H11        -2.7562   -4.7515   -2.7879 H         1 <0>         0.0875
     48 H12        -2.2220   -3.2110   -3.4831 H         1 <0>         0.0829
     49 H13        -0.0578   -5.2347   -3.3340 H         1 <0>         0.0733
     50 H14        -1.4263   -5.6981   -4.3628 H         1 <0>         0.0799
     51 H15         0.2131   -4.3751   -5.6517 H         1 <0>         0.0740
     52 H16        -1.3275   -3.5118   -5.4892 H         1 <0>         0.0704
     53 H17         0.5705   -1.9961   -5.1051 H         1 <0>         0.0863
     54 H18        -0.4233   -2.1635   -3.6521 H         1 <0>         0.0616
     55 H19         3.0122   -1.7931   -4.3316 H         1 <0>         0.0936
     56 H20         1.9439   -1.0653   -3.0799 H         1 <0>         0.0747
     57 H21         4.2305   -3.0529   -2.7386 H         1 <0>         0.0923
     58 H22         3.7971   -1.6591   -1.6990 H         1 <0>         0.0856
     59 H23         4.1750   -2.6979    0.4619 H         1 <0>         0.4028
     60 H24         2.1676   -1.1547    1.9167 H         1 <0>         0.0936
     61 H25         4.1250   -4.2888    2.3182 H         1 <0>         0.1143
     62 H26         3.5524   -6.0231    3.9697 H         1 <0>         0.1236
     63 H27         1.7554   -5.6210    5.6044 H         1 <0>         0.1237
     64 H28         0.5317   -3.4843    5.5882 H         1 <0>         0.1214
     65 H29         1.1100   -1.7468    3.9421 H         1 <0>         0.1110
     66 H30         5.5812   -2.6151    1.7909 H         1 <0>         0.1186
     67 H31         7.5872   -1.3992    2.5396 H         1 <0>         0.1276
     68 H32         7.3596    0.7911    3.6414 H         1 <0>         0.1271
     69 H33         5.1261    1.7658    3.9938 H         1 <0>         0.1262
     70 H34         3.1205    0.5537    3.2376 H         1 <0>         0.1182
     71 H35        -1.4090   -0.5276    2.0666 H         1 <0>         0.4369
     72 H36        -3.3735   -1.6542    1.4380 H         1 <0>         0.1287
     73 H37        -3.7771   -0.2908    2.5087 H         1 <0>         0.1315
     74 H38        -4.0020   -0.1379    0.7496 H         1 <0>         0.1228
     75 H39        -1.9974    0.9333    1.5825 H         1 <0>         0.4312
@<TRIPOS>BOND
     1    1    2 1
     2    1   41 1
     3    1   42 1
     4    1   43 1
     5    2    3 1
     6    2   44 1
     7    2   45 1
     8    3    4 1
     9    3    5 1
    10    3   39 1
    11    5    6 2
    12    5    7 am
    13    7    8 1
    14    7   46 1
    15    8    9 1
    16    8   21 1
    17    8   10 1
    18   10   11 1
    19   10   47 1
    20   10   48 1
    21   11   12 1
    22   11   49 1
    23   11   50 1
    24   12   13 1
    25   12   51 1
    26   12   52 1
    27   13   14 1
    28   13   53 1
    29   13   54 1
    30   14   15 1
    31   14   20 1
    32   14   16 1
    33   16   17 1
    34   16   55 1
    35   16   56 1
    36   17   18 1
    37   17   57 1
    38   17   58 1
    39   18   19 1
    40   18   20 1
    41   18   23 1
    42   20   21 am
    43   21   22 2
    44   23   24 2
    45   23   25 am
    46   25   26 1
    47   25   59 1
    48   26   27 1
    49   26   33 1
    50   26   60 1
    51   27   32 ar
    52   27   28 ar
    53   28   29 ar
    54   28   61 1
    55   29   30 ar
    56   29   62 1
    57   30   31 ar
    58   30   63 1
    59   31   32 ar
    60   31   64 1
    61   32   65 1
    62   33   38 ar
    63   33   34 ar
    64   34   35 ar
    65   34   66 1
    66   35   36 ar
    67   35   67 1
    68   36   37 ar
    69   36   68 1
    70   37   38 ar
    71   37   69 1
    72   38   70 1
    73   39   40 1
    74   39   71 1
    75   39   75 1
    76   40   72 1
    77   40   73 1
    78   40   74 1
@<TRIPOS>MOLECULE
CHEMBL577824
   79    82     0     0     0
SMALL
USER_CHARGES

@<TRIPOS>ATOM
      1 C1         -0.0187    1.5258    0.0104 C.3       1 <0>        -0.1702
      2 C2          0.0021   -0.0041    0.0020 C.3       1 <0>        -0.1417
      3 C3         -1.4333   -0.5336    0.0129 C.3       1 <0>         0.0105
      4 H1         -1.9862   -0.1019   -0.8214 H         1 <0>         0.1648
      5 C4         -1.4159   -2.0348   -0.1192 C.2       1 <0>         0.5031
      6 O1         -1.5501   -2.7316    0.8643 O.2       1 <0>        -0.4958
      7 N1         -1.2512   -2.6028   -1.3302 N.am      1 <0>        -0.6893
      8 C5         -1.2344   -4.0592   -1.4584 C.3       1 <0>         0.1535
      9 H2         -1.9415   -4.4722   -0.7218 H         1 <0>         0.1297
     10 C6         -1.6918   -4.4868   -2.8490 C.3       1 <0>        -0.1141
     11 H3         -1.3116   -5.4883   -3.0665 H         1 <0>         0.1079
     12 C7         -1.2059   -3.5091   -3.9135 C.3       1 <0>        -0.1249
     13 C8          0.3115   -3.3677   -3.8835 C.3       1 <0>        -0.1380
     14 C9          0.9536   -4.7013   -3.5066 C.3       1 <0>         0.1283
     15 H4          0.3468   -5.5249   -3.8879 H         1 <0>         0.0889
     16 C10         2.3644   -4.7755   -4.1157 C.3       1 <0>        -0.1267
     17 C11         3.1981   -5.5021   -3.0430 C.3       1 <0>        -0.1266
     18 C12         2.4736   -5.1897   -1.7234 C.3       1 <0>         0.1175
     19 H5          2.4728   -6.0728   -1.0808 H         1 <0>         0.1102
     20 N2          1.0888   -4.8071   -2.0515 N.am      1 <0>        -0.5807
     21 C13         0.1305   -4.5892   -1.1350 C.2       1 <0>         0.5256
     22 O2          0.3843   -4.8447    0.0273 O.2       1 <0>        -0.5103
     23 C14         3.1740   -4.0517   -1.0202 C.2       1 <0>         0.5199
     24 O3          2.5812   -3.0160   -0.8035 O.2       1 <0>        -0.5281
     25 N3          4.4579   -4.1869   -0.6333 N.am      1 <0>        -0.7198
     26 C15         5.1375   -3.0828    0.0490 C.3       1 <0>         0.2365
     27 C16         6.2597   -3.6289    0.8936 C.ar      1 <0>        -0.0951
     28 C17         7.0508   -4.6553    0.4122 C.ar      1 <0>        -0.1117
     29 C18         8.0802   -5.1562    1.1869 C.ar      1 <0>        -0.1123
     30 C19         8.3189   -4.6305    2.4429 C.ar      1 <0>        -0.1119
     31 C20         7.5284   -3.6036    2.9240 C.ar      1 <0>        -0.1128
     32 C21         6.5017   -3.0997    2.1475 C.ar      1 <0>        -0.1045
     33 C22         5.6974   -2.1286   -0.9742 C.ar      1 <0>        -0.0889
     34 C23         6.2767   -2.6168   -2.1305 C.ar      1 <0>        -0.1033
     35 C24         6.7903   -1.7414   -3.0690 C.ar      1 <0>        -0.1173
     36 C25         6.7241   -0.3779   -2.8516 C.ar      1 <0>        -0.1161
     37 C26         6.1440    0.1103   -1.6957 C.ar      1 <0>        -0.1174
     38 C27         5.6266   -0.7649   -0.7591 C.ar      1 <0>        -0.1039
     39 C28        -3.2266   -4.5365   -2.8781 C.3       1 <0>         0.1240
     40 N4         -3.6738   -5.0603   -4.1711 N.am      1 <0>        -0.7346
     41 C29        -4.9907   -5.1937   -4.4251 C.2       1 <0>         0.5134
     42 O4         -5.8055   -4.8801   -3.5832 O.2       1 <0>        -0.5421
     43 C30        -5.4507   -5.7325   -5.7552 C.3       1 <0>        -0.1755
     44 N5         -2.0833   -0.1607    1.2764 N.4       1 <0>        -0.6213
     45 H6          1.0039    1.9031    0.0027 H         1 <0>         0.0890
     46 H7         -0.5459    1.8868   -0.8726 H         1 <0>         0.0751
     47 H8         -0.5289    1.8773    0.9072 H         1 <0>         0.0553
     48 H9          0.5123   -0.3556   -0.8948 H         1 <0>         0.1177
     49 H10         0.5293   -0.3651    0.8851 H         1 <0>         0.0988
     50 H11        -1.1439   -2.0455   -2.1168 H         1 <0>         0.4115
     51 H12        -1.5046   -3.8835   -4.9012 H         1 <0>         0.0840
     52 H13        -1.6718   -2.5339   -3.7701 H         1 <0>         0.0722
     53 H14         0.6658   -3.0677   -4.8738 H         1 <0>         0.0896
     54 H15         0.6036   -2.6055   -3.1628 H         1 <0>         0.0744
     55 H16         2.3519   -5.3518   -5.0397 H         1 <0>         0.0950
     56 H17         2.7583   -3.7764   -4.2932 H         1 <0>         0.0818
     57 H18         3.2075   -6.5741   -3.2300 H         1 <0>         0.0949
     58 H19         4.2141   -5.1078   -3.0239 H         1 <0>         0.0897
     59 H20         4.9321   -5.0152   -0.8065 H         1 <0>         0.4017
     60 H21         4.4264   -2.5566    0.6858 H         1 <0>         0.1002
     61 H22         6.8643   -5.0660   -0.5691 H         1 <0>         0.1179
     62 H23         8.6978   -5.9585    0.8110 H         1 <0>         0.1270
     63 H24         9.1227   -5.0224    3.0485 H         1 <0>         0.1267
     64 H25         7.7147   -3.1931    3.9054 H         1 <0>         0.1268
     65 H26         5.8865   -2.2949    2.5219 H         1 <0>         0.1217
     66 H27         6.3284   -3.6821   -2.3004 H         1 <0>         0.1154
     67 H28         7.2435   -2.1229   -3.9721 H         1 <0>         0.1234
     68 H29         7.1260    0.3059   -3.5846 H         1 <0>         0.1233
     69 H30         6.0926    1.1756   -1.5257 H         1 <0>         0.1226
     70 H31         5.1700   -0.3833    0.1422 H         1 <0>         0.1178
     71 H32        -3.5843   -5.1863   -2.0794 H         1 <0>         0.0744
     72 H33        -3.6254   -3.5321   -2.7354 H         1 <0>         0.0696
     73 H34        -3.0221   -5.3111   -4.8444 H         1 <0>         0.4030
     74 H35        -5.5379   -6.8175   -5.6971 H         1 <0>         0.0978
     75 H36        -6.4207   -5.3030   -6.0054 H         1 <0>         0.0968
     76 H37        -4.7262   -5.4669   -6.5250 H         1 <0>         0.0815
     77 H38        -2.0949    0.8443    1.3648 H         1 <0>         0.4408
     78 H39        -3.0299   -0.5100    1.2835 H         1 <0>         0.4409
     79 H40        -1.5715   -0.5604    2.0487 H         1 <0>         0.4432
@<TRIPOS>BOND
     1    1    2 1
     2    1   45 1
     3    1   46 1
     4    1   47 1
     5    2    3 1
     6    2   48 1
     7    2   49 1
     8    3    4 1
     9    3    5 1
    10    3   44 1
    11    5    6 2
    12    5    7 am
    13    7    8 1
    14    7   50 1
    15    8    9 1
    16    8   21 1
    17    8   10 1
    18   10   11 1
    19   10   12 1
    20   10   39 1
    21   12   13 1
    22   12   51 1
    23   12   52 1
    24   13   14 1
    25   13   53 1
    26   13   54 1
    27   14   15 1
    28   14   20 1
    29   14   16 1
    30   16   17 1
    31   16   55 1
    32   16   56 1
    33   17   18 1
    34   17   57 1
    35   17   58 1
    36   18   19 1
    37   18   20 1
    38   18   23 1
    39   20   21 am
    40   21   22 2
    41   23   24 2
    42   23   25 am
    43   25   26 1
    44   25   59 1
    45   26   27 1
    46   26   33 1
    47   26   60 1
    48   27   32 ar
    49   27   28 ar
    50   28   29 ar
    51   28   61 1
    52   29   30 ar
    53   29   62 1
    54   30   31 ar
    55   30   63 1
    56   31   32 ar
    57   31   64 1
    58   32   65 1
    59   33   38 ar
    60   33   34 ar
    61   34   35 ar
    62   34   66 1
    63   35   36 ar
    64   35   67 1
    65   36   37 ar
    66   36   68 1
    67   37   38 ar
    68   37   69 1
    69   38   70 1
    70   39   40 1
    71   39   71 1
    72   39   72 1
    73   40   41 am
    74   40   73 1
    75   41   42 2
    76   41   43 1
    77   43   74 1
    78   43   75 1
    79   43   76 1
    80   44   77 1
    81   44   78 1
    82   44   79 1
@<TRIPOS>MOLECULE
CHEMBL584393
   86    90     0     0     0
SMALL
USER_CHARGES

@<TRIPOS>ATOM
      1 C1         -0.0187    1.5258    0.0104 C.3       1 <0>        -0.1702
      2 C2          0.0021   -0.0041    0.0020 C.3       1 <0>        -0.1417
      3 C3          0.7182   -0.4975   -1.2568 C.3       1 <0>         0.0105
      4 H1          1.7103   -0.0491   -1.3098 H         1 <0>         0.1648
      5 C4          0.8473   -1.9981   -1.2057 C.2       1 <0>         0.5031
      6 O1          0.0734   -2.6948   -1.8275 O.2       1 <0>        -0.4949
      7 N1          1.8227   -2.5659   -0.4690 N.am      1 <0>        -0.6896
      8 C5          1.9479   -4.0218   -0.4195 C.3       1 <0>         0.1541
      9 H2          1.6698   -4.4194   -1.4083 H         1 <0>         0.1299
     10 C6          3.3875   -4.4329   -0.1289 C.3       1 <0>        -0.1149
     11 H3          3.4014   -5.4428    0.2890 H         1 <0>         0.1082
     12 C7          4.0513   -3.4639    0.8436 C.3       1 <0>        -0.1257
     13 C8          3.2649   -3.3608    2.1453 C.3       1 <0>        -0.1380
     14 C9          2.6383   -4.7114    2.4861 C.3       1 <0>         0.1278
     15 H4          3.2846   -5.5181    2.1349 H         1 <0>         0.0886
     16 C10         2.4620   -4.8188    4.0106 C.3       1 <0>        -0.1269
     17 C11         1.1277   -5.5699    4.1817 C.3       1 <0>        -0.1275
     18 C12         0.3420   -5.2440    2.9009 C.3       1 <0>         0.1179
     19 H5         -0.2003   -6.1291    2.5612 H         1 <0>         0.1094
     20 N2          1.3122   -4.8256    1.8736 N.am      1 <0>        -0.5812
     21 C13         0.9940   -4.5869    0.5900 C.2       1 <0>         0.5252
     22 O2         -0.1354   -4.8528    0.2235 O.2       1 <0>        -0.5076
     23 C14        -0.6347   -4.1264    3.1785 C.2       1 <0>         0.5198
     24 O3         -0.5422   -3.0770    2.5776 O.2       1 <0>        -0.5278
     25 N3         -1.6093   -4.2952    4.0940 N.am      1 <0>        -0.7203
     26 C15        -2.5570   -3.2109    4.3633 C.3       1 <0>         0.2370
     27 C16        -3.6840   -3.2692    3.3647 C.ar      1 <0>        -0.0900
     28 C17        -4.2126   -4.4901    2.9894 C.ar      1 <0>        -0.0992
     29 C18        -5.2464   -4.5436    2.0733 C.ar      1 <0>        -0.1160
     30 C19        -5.7521   -3.3761    1.5329 C.ar      1 <0>        -0.1158
     31 C20        -5.2242   -2.1550    1.9088 C.ar      1 <0>        -0.1203
     32 C21        -4.1932   -2.1013    2.8281 C.ar      1 <0>        -0.1049
     33 C22        -3.1117   -3.3630    5.7562 C.ar      1 <0>        -0.0948
     34 C23        -3.4244   -4.6187    6.2424 C.ar      1 <0>        -0.1123
     35 C24        -3.9332   -4.7582    7.5201 C.ar      1 <0>        -0.1121
     36 C25        -4.1289   -3.6421    8.3118 C.ar      1 <0>        -0.1120
     37 C26        -3.8153   -2.3865    7.8260 C.ar      1 <0>        -0.1127
     38 C27        -3.3024   -2.2473    6.5499 C.ar      1 <0>        -0.1045
     39 C28         4.1804   -4.4439   -1.4441 C.3       1 <0>         0.1263
     40 N4          5.5318   -4.9518   -1.1954 N.am      1 <0>        -0.7296
     41 C29         6.4120   -5.0512   -2.2112 C.2       1 <0>         0.5642
     42 O4          6.0844   -4.7195   -3.3338 O.2       1 <0>        -0.5318
     43 C30         7.7758   -5.5638   -1.9602 C.ar      1 <0>        -0.1440
     44 C31         8.1533   -5.9510   -0.6734 C.ar      1 <0>        -0.0873
     45 C32         9.4273   -6.4289   -0.4460 C.ar      1 <0>        -0.1263
     46 C33        10.3302   -6.5243   -1.4900 C.ar      1 <0>        -0.0876
     47 C34         9.9626   -6.1418   -2.7678 C.ar      1 <0>        -0.1247
     48 C35         8.6897   -5.6681   -3.0100 C.ar      1 <0>        -0.0579
     49 N5         -0.0570   -0.1128   -2.4438 N.4       1 <0>        -0.6215
     50 H6          1.0039    1.9031    0.0027 H         1 <0>         0.0751
     51 H7         -0.5459    1.8868   -0.8726 H         1 <0>         0.0553
     52 H8         -0.5289    1.8773    0.9072 H         1 <0>         0.0889
     53 H9          0.5293   -0.3651    0.8851 H         1 <0>         0.1174
     54 H10        -1.0205   -0.3814    0.0098 H         1 <0>         0.0992
     55 H11         2.4416   -2.0086    0.0283 H         1 <0>         0.4114
     56 H12         5.0618   -3.8273    1.0713 H         1 <0>         0.0831
     57 H13         4.1448   -2.4779    0.3880 H         1 <0>         0.0732
     58 H14         3.9408   -3.0664    2.9532 H         1 <0>         0.0900
     59 H15         2.4829   -2.6087    2.0531 H         1 <0>         0.0747
     60 H16         3.2775   -5.3915    4.4502 H         1 <0>         0.0951
     61 H17         2.4033   -3.8293    4.4604 H         1 <0>         0.0816
     62 H18         1.3017   -6.6412    4.2619 H         1 <0>         0.0946
     63 H19         0.5973   -5.2013    5.0597 H         1 <0>         0.0914
     64 H20        -1.6833   -5.1345    4.5746 H         1 <0>         0.4016
     65 H21        -2.0456   -2.2520    4.2786 H         1 <0>         0.1012
     66 H22        -3.8175   -5.4023    3.4116 H         1 <0>         0.1152
     67 H23        -5.6588   -5.4975    1.7796 H         1 <0>         0.1232
     68 H24        -6.5593   -3.4179    0.8166 H         1 <0>         0.1226
     69 H25        -5.6190   -1.2429    1.4863 H         1 <0>         0.1213
     70 H26        -3.7832   -1.1472    3.1246 H         1 <0>         0.1178
     71 H27        -3.2715   -5.4907    5.6238 H         1 <0>         0.1179
     72 H28        -4.1782   -5.7392    7.8996 H         1 <0>         0.1268
     73 H29        -4.5271   -3.7510    9.3098 H         1 <0>         0.1265
     74 H30        -3.9685   -1.5144    8.4445 H         1 <0>         0.1269
     75 H31        -3.0540   -1.2667    6.1717 H         1 <0>         0.1222
     76 H32         3.6776   -5.0873   -2.1661 H         1 <0>         0.0768
     77 H33         4.2405   -3.4304   -1.8407 H         1 <0>         0.0719
     78 H34         5.7932   -5.2165   -0.2995 H         1 <0>         0.4015
     79 H35         7.4496   -5.8763    0.1425 H         1 <0>         0.1228
     80 H36         9.7206   -6.7288    0.5492 H         1 <0>         0.1314
     81 H37        11.3265   -6.8988   -1.3066 H         1 <0>         0.1312
     82 H38        10.6722   -6.2184   -3.5783 H         1 <0>         0.1334
     83 H39         8.4024   -5.3743   -4.0088 H         1 <0>         0.1365
     84 H40        -0.9754   -0.5279   -2.3947 H         1 <0>         0.4432
     85 H41        -0.1435    0.8919   -2.4780 H         1 <0>         0.4408
     86 H42         0.4152   -0.4382   -3.2739 H         1 <0>         0.4408
@<TRIPOS>BOND
     1    1    2 1
     2    1   50 1
     3    1   51 1
     4    1   52 1
     5    2    3 1
     6    2   53 1
     7    2   54 1
     8    3    4 1
     9    3    5 1
    10    3   49 1
    11    5    6 2
    12    5    7 am
    13    7    8 1
    14    7   55 1
    15    8    9 1
    16    8   21 1
    17    8   10 1
    18   10   11 1
    19   10   12 1
    20   10   39 1
    21   12   13 1
    22   12   56 1
    23   12   57 1
    24   13   14 1
    25   13   58 1
    26   13   59 1
    27   14   15 1
    28   14   20 1
    29   14   16 1
    30   16   17 1
    31   16   60 1
    32   16   61 1
    33   17   18 1
    34   17   62 1
    35   17   63 1
    36   18   19 1
    37   18   20 1
    38   18   23 1
    39   20   21 am
    40   21   22 2
    41   23   24 2
    42   23   25 am
    43   25   26 1
    44   25   64 1
    45   26   27 1
    46   26   33 1
    47   26   65 1
    48   27   32 ar
    49   27   28 ar
    50   28   29 ar
    51   28   66 1
    52   29   30 ar
    53   29   67 1
    54   30   31 ar
    55   30   68 1
    56   31   32 ar
    57   31   69 1
    58   32   70 1
    59   33   38 ar
    60   33   34 ar
    61   34   35 ar
    62   34   71 1
    63   35   36 ar
    64   35   72 1
    65   36   37 ar
    66   36   73 1
    67   37   38 ar
    68   37   74 1
    69   38   75 1
    70   39   40 1
    71   39   76 1
    72   39   77 1
    73   40   41 am
    74   40   78 1
    75   41   42 2
    76   41   43 1
    77   43   48 ar
    78   43   44 ar
    79   44   45 ar
    80   44   79 1
    81   45   46 ar
    82   45   80 1
    83   46   47 ar
    84   46   81 1
    85   47   48 ar
    86   47   82 1
    87   48   83 1
    88   49   84 1
    89   49   85 1
    90   49   86 1
@<TRIPOS>MOLECULE
CHEMBL471827
   59    61     0     0     0
SMALL
USER_CHARGES

@<TRIPOS>ATOM
      1 C1         -0.0187    1.5258    0.0104 C.3       1 <0>        -0.1719
      2 C2          0.0021   -0.0041    0.0020 C.3       1 <0>         0.0111
      3 H1          0.5123   -0.3556   -0.8948 H         1 <0>         0.1585
      4 C3          0.7309   -0.5033    1.2229 C.2       1 <0>         0.5143
      5 O1          0.1049   -0.8912    2.1865 O.2       1 <0>        -0.4903
      6 N1          2.0785   -0.5187    1.2440 N.am      1 <0>        -0.6966
      7 C4          2.7870   -1.0039    2.4307 C.3       1 <0>         0.1463
      8 H2          2.1908   -1.8259    2.8600 H         1 <0>         0.1234
      9 C5          4.1453   -1.5665    2.0285 C.3       1 <0>        -0.1281
     10 C6          5.2842   -0.8965    2.7845 C.3       1 <0>        -0.1343
     11 C7          5.9522    0.0837    1.8284 C.3       1 <0>        -0.1265
     12 C8          4.9598    1.1427    1.3653 C.3       1 <0>        -0.1254
     13 C9          4.4430    1.9390    2.5500 C.3       1 <0>         0.1489
     14 H3          5.2649    2.1171    3.2566 H         1 <0>         0.0818
     15 C10         3.9163    3.3055    2.0464 C.3       1 <0>        -0.1302
     16 C11         3.0896    3.7782    3.2649 C.3       1 <0>        -0.1282
     17 C12         2.5956    2.4694    3.9045 C.3       1 <0>         0.1113
     18 H4          2.8061    2.4775    4.9738 H         1 <0>         0.1025
     19 N2          3.3250    1.3354    3.2661 N.am      1 <0>        -0.6200
     20 C13         2.8899    0.0833    3.4458 C.2       1 <0>         0.5658
     21 O2          2.5513   -0.2124    4.5907 O.2       1 <0>        -0.5177
     22 C14         1.1116    2.3259    3.6758 C.2       1 <0>         0.5146
     23 O3          0.6839    1.3840    3.0427 O.2       1 <0>        -0.5296
     24 N3          0.2609    3.2444    4.1749 N.am      1 <0>        -0.7207
     25 C15        -1.1804    3.1051    3.9527 C.3       1 <0>         0.1724
     26 C16        -1.9031    4.2534    4.6084 C.ar      1 <0>        -0.1224
     27 C17        -2.3238    4.1462    5.9209 C.ar      1 <0>        -0.0989
     28 C18        -2.9867    5.1996    6.5224 C.ar      1 <0>        -0.1178
     29 C19        -3.2286    6.3603    5.8117 C.ar      1 <0>        -0.1046
     30 C20        -2.8071    6.4678    4.4995 C.ar      1 <0>        -0.1203
     31 C21        -2.1404    5.4161    3.8994 C.ar      1 <0>        -0.1018
     32 N4         -1.3761   -0.5125    0.0124 N.4       1 <0>        -0.6209
     33 H5          1.0039    1.9031    0.0027 H         1 <0>         0.1050
     34 H6         -0.5459    1.8868   -0.8726 H         1 <0>         0.0914
     35 H7         -0.5289    1.8773    0.9072 H         1 <0>         0.0937
     36 H8          2.5791   -0.2084    0.4733 H         1 <0>         0.4027
     37 H9          4.1664   -2.6412    2.2221 H         1 <0>         0.0883
     38 H10         4.2942   -1.4090    0.9543 H         1 <0>         0.0833
     39 H11         4.9238   -0.3667    3.6595 H         1 <0>         0.0732
     40 H12         6.0101   -1.6508    3.0967 H         1 <0>         0.0805
     41 H13         6.8015    0.5538    2.3139 H         1 <0>         0.0743
     42 H14         6.3036   -0.4723    0.9558 H         1 <0>         0.0708
     43 H15         5.4681    1.8231    0.6715 H         1 <0>         0.0867
     44 H16         4.1376    0.6700    0.8357 H         1 <0>         0.0614
     45 H17         4.7425    3.9875    1.8505 H         1 <0>         0.0939
     46 H18         3.2855    3.1797    1.1708 H         1 <0>         0.0745
     47 H19         3.7259    4.3212    3.9633 H         1 <0>         0.0926
     48 H20         2.2528    4.3951    2.9456 H         1 <0>         0.0850
     49 H21         0.6030    3.9978    4.6812 H         1 <0>         0.4055
     50 H22        -1.3852    3.1108    2.8821 H         1 <0>         0.0678
     51 H23        -1.5253    2.1652    4.3836 H         1 <0>         0.0757
     52 H24        -2.1348    3.2394    6.4761 H         1 <0>         0.1238
     53 H25        -3.3160    5.1156    7.5475 H         1 <0>         0.1278
     54 H26        -3.7471    7.1830    6.2814 H         1 <0>         0.1275
     55 H27        -2.9963    7.3746    3.9442 H         1 <0>         0.1267
     56 H28        -1.8078    5.5015    2.8754 H         1 <0>         0.1205
     57 H29        -1.3624   -1.5214    0.0069 H         1 <0>         0.4393
     58 H30        -1.8484   -0.1871    0.8426 H         1 <0>         0.4428
     59 H31        -1.8641   -0.1783   -0.8050 H         1 <0>         0.4406
@<TRIPOS>BOND
     1    1    2 1
     2    1   33 1
     3    1   34 1
     4    1   35 1
     5    2    3 1
     6    2    4 1
     7    2   32 1
     8    4    5 2
     9    4    6 am
    10    6    7 1
    11    6   36 1
    12    7    8 1
    13    7   20 1
    14    7    9 1
    15    9   10 1
    16    9   37 1
    17    9   38 1
    18   10   11 1
    19   10   39 1
    20   10   40 1
    21   11   12 1
    22   11   41 1
    23   11   42 1
    24   12   13 1
    25   12   43 1
    26   12   44 1
    27   13   14 1
    28   13   19 1
    29   13   15 1
    30   15   16 1
    31   15   45 1
    32   15   46 1
    33   16   17 1
    34   16   47 1
    35   16   48 1
    36   17   18 1
    37   17   19 1
    38   17   22 1
    39   19   20 am
    40   20   21 2
    41   22   23 2
    42   22   24 am
    43   24   25 1
    44   24   49 1
    45   25   26 1
    46   25   50 1
    47   25   51 1
    48   26   31 ar
    49   26   27 ar
    50   27   28 ar
    51   27   52 1
    52   28   29 ar
    53   28   53 1
    54   29   30 ar
    55   29   54 1
    56   30   31 ar
    57   30   55 1
    58   31   56 1
    59   32   57 1
    60   32   58 1
    61   32   59 1
@<TRIPOS>MOLECULE
CHEMBL456418
   68    70     0     0     0
SMALL
USER_CHARGES

@<TRIPOS>ATOM
      1 C1         -2.1157    2.9163   -0.8579 C.3       1 <0>        -0.1825
      2 C2         -1.3006    1.6220   -0.8923 C.3       1 <0>         0.0048
      3 H1         -0.4648    1.7004   -0.1971 H         1 <0>         0.1670
      4 C3         -2.1790    0.4643   -0.4931 C.2       1 <0>         0.5054
      5 O1         -2.3603   -0.4536   -1.2648 O.2       1 <0>        -0.5198
      6 N1         -2.7631    0.4491    0.7214 N.am      1 <0>        -0.6832
      7 C4         -3.6171   -0.6763    1.1094 C.3       1 <0>         0.1387
      8 H2         -4.1600   -1.0384    0.2363 H         1 <0>         0.1158
      9 C5         -4.5989   -0.2233    2.1591 C.2       1 <0>         0.5282
     10 O2         -4.2601    0.5846    2.9978 O.2       1 <0>        -0.5167
     11 N2         -5.8533   -0.7160    2.1659 N.am      1 <0>        -0.6018
     12 C6         -6.3649   -1.7734    1.2759 C.3       1 <0>         0.0877
     13 C7         -7.8894   -1.5172    1.1948 C.3       1 <0>        -0.1294
     14 C8         -8.2157   -1.0543    2.6363 C.3       1 <0>        -0.0990
     15 H3         -9.1204   -0.4493    2.6966 H         1 <0>         0.1094
     16 C9         -6.9341   -0.2920    3.0659 C.3       1 <0>         0.1317
     17 H4         -7.0865    0.7859    3.0105 H         1 <0>         0.0912
     18 C10        -6.6120   -0.7483    4.4990 C.3       1 <0>         0.1419
     19 H5         -5.6354   -1.2317    4.5258 H         1 <0>         0.0962
     20 C11        -7.7096   -1.7536    4.9023 C.3       1 <0>        -0.1372
     21 C12        -8.2570   -2.2994    3.5531 C.3       1 <0>        -0.1195
     22 N3         -6.6266    0.4018    5.4064 N.am      1 <0>        -0.7171
     23 C13        -5.9132    0.3674    6.5494 C.2       1 <0>         0.5657
     24 O3         -5.2578   -0.6178    6.8274 O.2       1 <0>        -0.5332
     25 C14        -5.9279    1.5280    7.4651 C.ar      1 <0>        -0.1379
     26 C15        -6.6841    2.6586    7.1517 C.ar      1 <0>        -0.0871
     27 C16        -6.6938    3.7380    8.0107 C.ar      1 <0>        -0.1273
     28 C17        -5.9559    3.7018    9.1805 C.ar      1 <0>        -0.0912
     29 C18        -5.2039    2.5843    9.4969 C.ar      1 <0>        -0.1258
     30 C19        -5.1903    1.4957    8.6496 C.ar      1 <0>        -0.0595
     31 C20        -2.7501   -1.8033    1.6743 C.3       1 <0>        -0.0696
     32 C21        -1.8969   -1.2631    2.8237 C.3       1 <0>        -0.1471
     33 C22        -3.6492   -2.9281    2.1915 C.3       1 <0>        -0.1544
     34 C23        -1.8373   -2.3457    0.5727 C.3       1 <0>        -0.1309
     35 N4         -0.7881    1.4020   -2.2513 N.4       1 <0>        -0.4940
     36 C24         0.1616    2.4687   -2.5951 C.3       1 <0>        -0.0503
     37 H6         -1.4804    3.7536   -1.1466 H         1 <0>         0.1000
     38 H7         -2.9516    2.8378   -1.5531 H         1 <0>         0.0904
     39 H8         -2.4960    3.0795    0.1505 H         1 <0>         0.1109
     40 H9         -2.6181    1.1832    1.3385 H         1 <0>         0.4179
     41 H10        -5.9127   -1.6894    0.2877 H         1 <0>         0.0802
     42 H11        -6.1674   -2.7569    1.7023 H         1 <0>         0.0840
     43 H12        -8.1143   -0.7316    0.4734 H         1 <0>         0.0790
     44 H13        -8.4256   -2.4340    0.9496 H         1 <0>         0.0947
     45 H14        -7.2874   -2.5583    5.5043 H         1 <0>         0.0779
     46 H15        -8.5086   -1.2487    5.4452 H         1 <0>         0.0756
     47 H16        -9.2773   -2.6688    3.6561 H         1 <0>         0.0817
     48 H17        -7.5995   -3.0808    3.1721 H         1 <0>         0.0732
     49 H18        -7.1496    1.1880    5.1845 H         1 <0>         0.3983
     50 H19        -7.2600    2.6884    6.2385 H         1 <0>         0.1224
     51 H20        -7.2785    4.6134    7.7694 H         1 <0>         0.1298
     52 H21        -5.9667    4.5496    9.8494 H         1 <0>         0.1297
     53 H22        -4.6298    2.5625   10.4114 H         1 <0>         0.1320
     54 H23        -4.6068    0.6221    8.9001 H         1 <0>         0.1356
     55 H24        -2.5472   -0.8767    3.6085 H         1 <0>         0.0695
     56 H25        -1.2792   -2.0660    3.2262 H         1 <0>         0.0646
     57 H26        -1.2564   -0.4618    2.4553 H         1 <0>         0.0507
     58 H27        -4.3171   -3.2549    1.3945 H         1 <0>         0.0642
     59 H28        -3.0324   -3.7664    2.5153 H         1 <0>         0.0727
     60 H29        -4.2386   -2.5642    3.0331 H         1 <0>         0.0614
     61 H30        -1.1968   -1.5444    0.2043 H         1 <0>         0.0467
     62 H31        -1.2197   -3.1486    0.9752 H         1 <0>         0.0619
     63 H32        -2.4452   -2.7305   -0.2461 H         1 <0>         0.0653
     64 H33        -0.3207    0.5088   -2.2940 H         1 <0>         0.4377
     65 H34         0.5418    2.3054   -3.6035 H         1 <0>         0.1338
     66 H35        -0.3434    3.4335   -2.5490 H         1 <0>         0.1274
     67 H36         0.9910    2.4585   -1.8880 H         1 <0>         0.1267
     68 H37        -1.5559    1.4114   -2.9059 H         1 <0>         0.4347
@<TRIPOS>BOND
     1    1    2 1
     2    1   37 1
     3    1   38 1
     4    1   39 1
     5    2    3 1
     6    2    4 1
     7    2   35 1
     8    4    5 2
     9    4    6 am
    10    6    7 1
    11    6   40 1
    12    7    8 1
    13    7    9 1
    14    7   31 1
    15    9   10 2
    16    9   11 am
    17   11   16 1
    18   11   12 1
    19   12   13 1
    20   12   41 1
    21   12   42 1
    22   13   14 1
    23   13   43 1
    24   13   44 1
    25   14   15 1
    26   14   21 1
    27   14   16 1
    28   16   17 1
    29   16   18 1
    30   18   19 1
    31   18   20 1
    32   18   22 1
    33   20   21 1
    34   20   45 1
    35   20   46 1
    36   21   47 1
    37   21   48 1
    38   22   23 am
    39   22   49 1
    40   23   24 2
    41   23   25 1
    42   25   30 ar
    43   25   26 ar
    44   26   27 ar
    45   26   50 1
    46   27   28 ar
    47   27   51 1
    48   28   29 ar
    49   28   52 1
    50   29   30 ar
    51   29   53 1
    52   30   54 1
    53   31   32 1
    54   31   33 1
    55   31   34 1
    56   32   55 1
    57   32   56 1
    58   32   57 1
    59   33   58 1
    60   33   59 1
    61   33   60 1
    62   34   61 1
    63   34   62 1
    64   34   63 1
    65   35   36 1
    66   35   64 1
    67   35   68 1
    68   36   65 1
    69   36   66 1
    70   36   67 1
@<TRIPOS>MOLECULE
CHEMBL188510
   86    90     0     0     0
SMALL
USER_CHARGES

@<TRIPOS>ATOM
      1 C1          2.0027   -2.7170   -2.4713 C.3       1 <0>        -0.1839
      2 C2          1.1112   -3.9561   -2.5749 C.3       1 <0>         0.0050
      3 C3         -0.2561   -3.6385   -2.0266 C.2       1 <0>         0.5053
      4 O1         -0.6918   -4.2648   -1.0838 O.2       1 <0>        -0.5207
      5 N1         -0.9946   -2.6585   -2.5838 N.am      1 <0>        -0.6801
      6 C4         -2.3238   -2.3497   -2.0508 C.3       1 <0>         0.1379
      7 H1         -2.8011   -3.2686   -1.7102 H         1 <0>         0.1174
      8 C5         -2.1892   -1.3792   -0.8757 C.3       1 <0>        -0.0949
      9 C6         -1.3914   -0.1508   -1.3176 C.3       1 <0>        -0.1125
     10 C7         -1.2568    0.8198   -0.1425 C.3       1 <0>        -0.1199
     11 C8         -0.5285    0.1265    1.0107 C.3       1 <0>        -0.1187
     12 C9         -1.3263   -1.1019    1.4526 C.3       1 <0>        -0.1237
     13 C10        -1.4609   -2.0725    0.2775 C.3       1 <0>        -0.0993
     14 C11        -3.1637   -1.7177   -3.1306 C.2       1 <0>         0.5367
     15 O2         -2.6334   -1.2526   -4.1172 O.2       1 <0>        -0.5023
     16 N2         -4.5043   -1.6693   -3.0000 N.am      1 <0>        -0.5940
     17 C12        -5.2659   -2.0956   -1.8169 C.3       1 <0>         0.0730
     18 C13        -6.7573   -1.8310   -2.1123 C.3       1 <0>         0.0784
     19 H2         -7.2441   -2.7347   -2.4790 H         1 <0>         0.1013
     20 C14        -6.7049   -0.7470   -3.2212 C.3       1 <0>        -0.1176
     21 C15        -5.4493   -1.1742   -4.0174 C.3       1 <0>         0.1197
     22 H3         -5.7007   -1.9685   -4.7202 H         1 <0>         0.1054
     23 C16        -4.8632    0.0071   -4.7470 C.2       1 <0>         0.5178
     24 O3         -4.0119    0.6872   -4.2145 O.2       1 <0>        -0.5030
     25 N3         -5.2851    0.3077   -5.9912 N.am      1 <0>        -0.7197
     26 C17        -4.7154    1.4560   -6.7004 C.3       1 <0>         0.1921
     27 C18        -5.7293    1.9723   -7.7193 C.3       1 <0>        -0.1267
     28 C19        -5.0408    3.0250   -8.5960 C.3       1 <0>        -0.1165
     29 C20        -4.0224    2.3176   -9.4878 C.3       1 <0>        -0.0860
     30 C21        -3.1225    1.4330   -8.6652 C.ar      1 <0>        -0.0651
     31 C22        -3.4425    1.0342   -7.3867 C.ar      1 <0>        -0.1045
     32 C23        -2.5709    0.2122   -6.6843 C.ar      1 <0>        -0.1102
     33 C24        -1.3863   -0.2047   -7.2558 C.ar      1 <0>        -0.1304
     34 C25        -1.0633    0.1988   -8.5378 C.ar      1 <0>        -0.1166
     35 C26        -1.9288    1.0139   -9.2379 C.ar      1 <0>        -0.1309
     36 O4         -7.4232   -1.3369   -0.9484 O.3       1 <0>        -0.2947
     37 C27        -7.9787   -2.2579   -0.1177 C.ar      1 <0>         0.1202
     38 C28        -8.7216   -1.8459    0.9791 C.ar      1 <0>        -0.1459
     39 C29        -9.2856   -2.7841    1.8217 C.ar      1 <0>        -0.0772
     40 C30        -9.1098   -4.1328    1.5731 C.ar      1 <0>        -0.1515
     41 C31        -8.3694   -4.5460    0.4809 C.ar      1 <0>        -0.0797
     42 C32        -7.8085   -3.6118   -0.3683 C.ar      1 <0>        -0.2106
     43 N4          1.7064   -5.0537   -1.8009 N.4       1 <0>        -0.4941
     44 C33         2.9859   -5.4436   -2.4083 C.3       1 <0>        -0.0503
     45 H4          2.9917   -2.9468   -2.8679 H         1 <0>         0.0998
     46 H5          1.5611   -1.9026   -3.0456 H         1 <0>         0.1118
     47 H6          2.0905   -2.4190   -1.4265 H         1 <0>         0.0912
     48 H7          1.0234   -4.2542   -3.6197 H         1 <0>         0.1668
     49 H8         -0.6461   -2.1576   -3.3378 H         1 <0>         0.4194
     50 H9         -3.1805   -1.0690   -0.5452 H         1 <0>         0.0907
     51 H10        -0.4001   -0.4609   -1.6481 H         1 <0>         0.0568
     52 H11        -1.9102    0.3432   -2.1392 H         1 <0>         0.0761
     53 H12        -0.6884    1.6949   -0.4574 H         1 <0>         0.0656
     54 H13        -2.2481    1.1300    0.1879 H         1 <0>         0.0647
     55 H14         0.4628   -0.1837    0.6802 H         1 <0>         0.0554
     56 H15        -0.4326    0.8179    1.8478 H         1 <0>         0.0649
     57 H16        -0.8075   -1.5958    2.2742 H         1 <0>         0.0640
     58 H17        -2.3176   -0.7917    1.7831 H         1 <0>         0.0653
     59 H18        -2.0293   -2.9476    0.5924 H         1 <0>         0.0689
     60 H19        -0.4696   -2.3826   -0.0529 H         1 <0>         0.0563
     61 H20        -5.1066   -3.1588   -1.6369 H         1 <0>         0.0840
     62 H21        -4.9523   -1.5191   -0.9467 H         1 <0>         0.0919
     63 H22        -7.5973   -0.7840   -3.8461 H         1 <0>         0.1086
     64 H23        -6.5718    0.2457   -2.7912 H         1 <0>         0.1022
     65 H24        -5.9660   -0.2363   -6.4171 H         1 <0>         0.4013
     66 H25        -4.4924    2.2464   -5.9838 H         1 <0>         0.0982
     67 H26        -6.0774    1.1475   -8.3411 H         1 <0>         0.0731
     68 H27        -6.5747    2.4232   -7.1998 H         1 <0>         0.0770
     69 H28        -5.7827    3.5297   -9.2148 H         1 <0>         0.0775
     70 H29        -4.5322    3.7533   -7.9642 H         1 <0>         0.0698
     71 H30        -4.5496    1.7096  -10.2231 H         1 <0>         0.0783
     72 H31        -3.4185    3.0630  -10.0052 H         1 <0>         0.0780
     73 H32        -2.8223   -0.1030   -5.6824 H         1 <0>         0.1626
     74 H33        -0.7136   -0.8439   -6.7033 H         1 <0>         0.1109
     75 H34        -0.1365   -0.1226   -8.9896 H         1 <0>         0.1172
     76 H35        -1.6759    1.3285  -10.2397 H         1 <0>         0.1201
     77 H36        -8.8586   -0.7925    1.1741 H         1 <0>         0.1327
     78 H37        -9.8640   -2.4638    2.6757 H         1 <0>         0.1328
     79 H38        -9.5512   -4.8647    2.2332 H         1 <0>         0.1268
     80 H39        -8.2332   -5.6001    0.2890 H         1 <0>         0.1259
     81 H40        -7.2340   -3.9351   -1.2237 H         1 <0>         0.1254
     82 H41         1.8635   -4.7494   -0.8519 H         1 <0>         0.4347
     83 H42         3.6634   -4.5897   -2.4080 H         1 <0>         0.1275
     84 H43         3.4275   -6.2580   -1.8340 H         1 <0>         0.1335
     85 H44         2.8161   -5.7724   -3.4336 H         1 <0>         0.1265
     86 H45         1.0792   -5.8441   -1.8012 H         1 <0>         0.4374
@<TRIPOS>BOND
     1    1    2 1
     2    1   45 1
     3    1   46 1
     4    1   47 1
     5    2    3 1
     6    2   43 1
     7    2   48 1
     8    3    4 2
     9    3    5 am
    10    5    6 1
    11    5   49 1
    12    6    7 1
    13    6    8 1
    14    6   14 1
    15    8   13 1
    16    8    9 1
    17    8   50 1
    18    9   10 1
    19    9   51 1
    20    9   52 1
    21   10   11 1
    22   10   53 1
    23   10   54 1
    24   11   12 1
    25   11   55 1
    26   11   56 1
    27   12   13 1
    28   12   57 1
    29   12   58 1
    30   13   59 1
    31   13   60 1
    32   14   15 2
    33   14   16 am
    34   16   21 1
    35   16   17 1
    36   17   18 1
    37   17   61 1
    38   17   62 1
    39   18   19 1
    40   18   20 1
    41   18   36 1
    42   20   21 1
    43   20   63 1
    44   20   64 1
    45   21   22 1
    46   21   23 1
    47   23   24 2
    48   23   25 am
    49   25   26 1
    50   25   65 1
    51   26   31 1
    52   26   27 1
    53   26   66 1
    54   27   28 1
    55   27   67 1
    56   27   68 1
    57   28   29 1
    58   28   69 1
    59   28   70 1
    60   29   30 1
    61   29   71 1
    62   29   72 1
    63   30   35 ar
    64   30   31 ar
    65   31   32 ar
    66   32   33 ar
    67   32   73 1
    68   33   34 ar
    69   33   74 1
    70   34   35 ar
    71   34   75 1
    72   35   76 1
    73   36   37 1
    74   37   42 ar
    75   37   38 ar
    76   38   39 ar
    77   38   77 1
    78   39   40 ar
    79   39   78 1
    80   40   41 ar
    81   40   79 1
    82   41   42 ar
    83   41   80 1
    84   42   81 1
    85   43   44 1
    86   43   82 1
    87   43   86 1
    88   44   83 1
    89   44   84 1
    90   44   85 1
@<TRIPOS>MOLECULE
CHEMBL188510__1
   86    90     0     0     0
SMALL
USER_CHARGES

@<TRIPOS>ATOM
      1 C1          1.4351   -3.4121   -3.2012 C.3       1 <0>        -0.1839
      2 C2          0.4356   -4.5701   -3.2311 C.3       1 <0>         0.0054
      3 C3         -0.8232   -4.1659   -2.5079 C.2       1 <0>         0.5052
      4 O1         -1.1932   -4.7929   -1.5378 O.2       1 <0>        -0.5208
      5 N1         -1.5379   -3.1077   -2.9390 N.am      1 <0>        -0.6805
      6 C4         -2.7617   -2.7148   -2.2360 C.3       1 <0>         0.1374
      7 H1         -3.2705   -3.6053   -1.8670 H         1 <0>         0.1181
      8 C5         -2.4037   -1.8068   -1.0577 C.3       1 <0>        -0.0959
      9 C6         -1.5610   -0.6315   -1.5571 C.3       1 <0>        -0.1125
     10 C7         -1.2031    0.2765   -0.3788 C.3       1 <0>        -0.1198
     11 C8         -0.4049   -0.5204    0.6550 C.3       1 <0>        -0.1187
     12 C9         -1.2476   -1.6957    1.1544 C.3       1 <0>        -0.1238
     13 C10        -1.6055   -2.6037   -0.0239 C.3       1 <0>        -0.0993
     14 C11        -3.6694   -1.9737   -3.1835 C.2       1 <0>         0.5358
     15 O2         -3.2290   -1.5294   -4.2225 O.2       1 <0>        -0.5056
     16 N2         -4.9708   -1.8047   -2.8763 N.am      1 <0>        -0.5939
     17 C12        -5.6083   -2.1864   -1.6077 C.3       1 <0>         0.0724
     18 C13        -7.0937   -1.7782   -1.7003 C.3       1 <0>         0.0791
     19 H2         -7.7076   -2.6242   -2.0093 H         1 <0>         0.1012
     20 C14        -7.0842   -0.6781   -2.7944 C.3       1 <0>        -0.1180
     21 C15        -5.9895   -1.2007   -3.7543 C.3       1 <0>         0.1198
     22 H3         -6.4046   -1.9518   -4.4264 H         1 <0>         0.1040
     23 C16        -5.3945   -0.0620   -4.5419 C.2       1 <0>         0.5212
     24 O3         -4.4831    0.5875   -4.0746 O.2       1 <0>        -0.5047
     25 N3         -5.8751    0.2346   -5.7656 N.am      1 <0>        -0.7187
     26 C17        -5.2967    1.3416   -6.5313 C.3       1 <0>         0.1941
     27 C18        -5.5079    1.0871   -8.0224 C.3       1 <0>        -0.1252
     28 C19        -5.0956    2.3479   -8.7914 C.3       1 <0>        -0.1159
     29 C20        -6.1208    3.4432   -8.5051 C.3       1 <0>        -0.0851
     30 C21        -6.3304    3.5976   -7.0214 C.ar      1 <0>        -0.0673
     31 C22        -5.9555    2.6308   -6.1154 C.ar      1 <0>        -0.0994
     32 C23        -6.1832    2.8329   -4.7605 C.ar      1 <0>        -0.1067
     33 C24        -6.7785    3.9952   -4.3152 C.ar      1 <0>        -0.1274
     34 C25        -7.1513    4.9673   -5.2243 C.ar      1 <0>        -0.1117
     35 C26        -6.9277    4.7676   -6.5711 C.ar      1 <0>        -0.1246
     36 O4         -7.5521   -1.2520   -0.4533 O.3       1 <0>        -0.2944
     37 C27        -8.0676   -2.1387    0.4383 C.ar      1 <0>         0.1203
     38 C28        -8.6158   -1.6867    1.6299 C.ar      1 <0>        -0.1459
     39 C29        -9.1396   -2.5900    2.5344 C.ar      1 <0>        -0.0772
     40 C30        -9.1175   -3.9435    2.2531 C.ar      1 <0>        -0.1516
     41 C31        -8.5714   -4.3966    1.0664 C.ar      1 <0>        -0.0796
     42 C32        -8.0518   -3.4969    0.1559 C.ar      1 <0>        -0.2107
     43 N4          1.0247   -5.7426   -2.5707 N.4       1 <0>        -0.4941
     44 C33         2.1834   -6.2093   -3.3437 C.3       1 <0>        -0.0503
     45 H4          2.3456   -3.7045   -3.7243 H         1 <0>         0.0999
     46 H5          0.9980   -2.5421   -3.6912 H         1 <0>         0.1117
     47 H6          1.6738   -3.1648   -2.1668 H         1 <0>         0.0911
     48 H7          0.1969   -4.8174   -4.2655 H         1 <0>         0.1669
     49 H8         -1.2420   -2.6063   -3.7149 H         1 <0>         0.4194
     50 H9         -3.3177   -1.4296   -0.5990 H         1 <0>         0.0912
     51 H10        -0.6471   -1.0088   -2.0158 H         1 <0>         0.0569
     52 H11        -2.1297   -0.0638   -2.2936 H         1 <0>         0.0748
     53 H12        -0.6027    1.1138   -0.7346 H         1 <0>         0.0659
     54 H13        -2.1171    0.6537    0.0799 H         1 <0>         0.0650
     55 H14         0.5091   -0.8977    0.1963 H         1 <0>         0.0555
     56 H15        -0.1499    0.1264    1.4944 H         1 <0>         0.0651
     57 H16        -0.6789   -2.2635    1.8909 H         1 <0>         0.0642
     58 H17        -2.1616   -1.3185    1.6132 H         1 <0>         0.0654
     59 H18        -2.2059   -3.4410    0.3319 H         1 <0>         0.0692
     60 H19        -0.6916   -2.9810   -0.4826 H         1 <0>         0.0564
     61 H20        -5.5283   -3.2636   -1.4619 H         1 <0>         0.0843
     62 H21        -5.1306   -1.6618   -0.7802 H         1 <0>         0.0921
     63 H22        -8.0499   -0.6178   -3.2962 H         1 <0>         0.1085
     64 H23        -6.8026    0.2877   -2.3749 H         1 <0>         0.1018
     65 H24        -6.6040   -0.2849   -6.1394 H         1 <0>         0.4006
     66 H25        -4.2280    1.4013   -6.3252 H         1 <0>         0.0989
     67 H26        -4.8937    0.2451   -8.3417 H         1 <0>         0.0743
     68 H27        -6.5587    0.8685   -8.2123 H         1 <0>         0.0732
     69 H28        -4.1090    2.6731   -8.4612 H         1 <0>         0.0691
     70 H29        -5.0740    2.1354   -9.8602 H         1 <0>         0.0765
     71 H30        -5.7636    4.3867   -8.9177 H         1 <0>         0.0785
     72 H31        -7.0680    3.1811   -8.9766 H         1 <0>         0.0790
     73 H32        -5.8923    2.0738   -4.0495 H         1 <0>         0.1253
     74 H33        -6.9529    4.1448   -3.2599 H         1 <0>         0.1197
     75 H34        -7.6164    5.8799   -4.8817 H         1 <0>         0.1227
     76 H35        -7.2195    5.5275   -7.2809 H         1 <0>         0.1225
     77 H36        -8.6326   -0.6296    1.8504 H         1 <0>         0.1326
     78 H37        -9.5664   -2.2386    3.4622 H         1 <0>         0.1327
     79 H38        -9.5272   -4.6482    2.9617 H         1 <0>         0.1267
     80 H39        -8.5549   -5.4544    0.8491 H         1 <0>         0.1259
     81 H40        -7.6294   -3.8509   -0.7729 H         1 <0>         0.1253
     82 H41         1.3209   -5.4908   -1.6396 H         1 <0>         0.4347
     83 H42         2.9260   -5.4136   -3.4015 H         1 <0>         0.1275
     84 H43         2.6205   -7.0793   -2.8537 H         1 <0>         0.1335
     85 H44         1.8634   -6.4814   -4.3496 H         1 <0>         0.1266
     86 H45         0.3373   -6.4793   -2.5172 H         1 <0>         0.4375
@<TRIPOS>BOND
     1    1    2 1
     2    1   45 1
     3    1   46 1
     4    1   47 1
     5    2    3 1
     6    2   43 1
     7    2   48 1
     8    3    4 2
     9    3    5 am
    10    5    6 1
    11    5   49 1
    12    6    7 1
    13    6    8 1
    14    6   14 1
    15    8   13 1
    16    8    9 1
    17    8   50 1
    18    9   10 1
    19    9   51 1
    20    9   52 1
    21   10   11 1
    22   10   53 1
    23   10   54 1
    24   11   12 1
    25   11   55 1
    26   11   56 1
    27   12   13 1
    28   12   57 1
    29   12   58 1
    30   13   59 1
    31   13   60 1
    32   14   15 2
    33   14   16 am
    34   16   21 1
    35   16   17 1
    36   17   18 1
    37   17   61 1
    38   17   62 1
    39   18   19 1
    40   18   20 1
    41   18   36 1
    42   20   21 1
    43   20   63 1
    44   20   64 1
    45   21   22 1
    46   21   23 1
    47   23   24 2
    48   23   25 am
    49   25   26 1
    50   25   65 1
    51   26   31 1
    52   26   27 1
    53   26   66 1
    54   27   28 1
    55   27   67 1
    56   27   68 1
    57   28   29 1
    58   28   69 1
    59   28   70 1
    60   29   30 1
    61   29   71 1
    62   29   72 1
    63   30   35 ar
    64   30   31 ar
    65   31   32 ar
    66   32   33 ar
    67   32   73 1
    68   33   34 ar
    69   33   74 1
    70   34   35 ar
    71   34   75 1
    72   35   76 1
    73   36   37 1
    74   37   42 ar
    75   37   38 ar
    76   38   39 ar
    77   38   77 1
    78   39   40 ar
    79   39   78 1
    80   40   41 ar
    81   40   79 1
    82   41   42 ar
    83   41   80 1
    84   42   81 1
    85   43   44 1
    86   43   82 1
    87   43   86 1
    88   44   83 1
    89   44   84 1
    90   44   85 1
@<TRIPOS>MOLECULE
CHEMBL188510__2
   86    90     0     0     0
SMALL
USER_CHARGES

@<TRIPOS>ATOM
      1 C1         -0.4450    5.1700    3.0724 C.3       1 <0>        -0.1827
      2 C2         -1.1539    3.8784    2.6598 C.3       1 <0>         0.0047
      3 C3         -0.3689    2.6930    3.1595 C.2       1 <0>         0.5054
      4 O1         -0.8825    1.9045    3.9246 O.2       1 <0>        -0.5207
      5 N1          0.9038    2.5090    2.7561 N.am      1 <0>        -0.6801
      6 C4          1.6669    1.3566    3.2418 C.3       1 <0>         0.1381
      7 H1          1.3824    1.1404    4.2715 H         1 <0>         0.1174
      8 C5          1.3675    0.1400    2.3637 C.3       1 <0>        -0.0953
      9 C6          1.6302    0.4917    0.8981 C.3       1 <0>        -0.1126
     10 C7          1.3308   -0.7250    0.0200 C.3       1 <0>        -0.1199
     11 C8         -0.1344   -1.1302    0.1925 C.3       1 <0>        -0.1191
     12 C9         -0.3972   -1.4820    1.6582 C.3       1 <0>        -0.1236
     13 C10        -0.0977   -0.2653    2.5362 C.3       1 <0>        -0.0992
     14 C11         3.1401    1.6686    3.1825 C.2       1 <0>         0.5370
     15 O2          3.5383    2.5874    2.4983 O.2       1 <0>        -0.5024
     16 N2          4.0150    0.9265    3.8898 N.am      1 <0>        -0.5939
     17 C12         3.6847   -0.2743    4.6712 C.3       1 <0>         0.0729
     18 C13         5.0009   -0.7998    5.2820 C.3       1 <0>         0.0785
     19 H2          5.1240   -0.4378    6.3027 H         1 <0>         0.1012
     20 C14         6.0830   -0.1932    4.3501 C.3       1 <0>        -0.1177
     21 C15         5.4627    1.1807    4.0029 C.3       1 <0>         0.1198
     22 H3          5.6610    1.8964    4.8008 H         1 <0>         0.1054
     23 C16         6.0100    1.6882    2.6937 C.2       1 <0>         0.5177
     24 O3          5.4397    1.4264    1.6559 O.2       1 <0>        -0.5029
     25 N3          7.1331    2.4330    2.6762 N.am      1 <0>        -0.7197
     26 C17         7.6651    2.9263    1.4035 C.3       1 <0>         0.1920
     27 C18         9.1710    3.1434    1.5374 C.3       1 <0>        -0.1267
     28 C19         9.6702    3.8604    0.2774 C.3       1 <0>        -0.1166
     29 C20         9.1375    5.2918    0.2950 C.3       1 <0>        -0.0860
     30 C21         7.6496    5.3001    0.5298 C.ar      1 <0>        -0.0651
     31 C22         6.9741    4.2151    1.0425 C.ar      1 <0>        -0.1045
     32 C23         5.6017    4.2906    1.2409 C.ar      1 <0>        -0.1102
     33 C24         4.9099    5.4420    0.9254 C.ar      1 <0>        -0.1305
     34 C25         5.5873    6.5296    0.4072 C.ar      1 <0>        -0.1166
     35 C26         6.9512    6.4573    0.2111 C.ar      1 <0>        -0.1309
     36 O4          5.0403   -2.2278    5.2458 O.3       1 <0>        -0.2947
     37 C27         4.5354   -2.8864    6.3220 C.ar      1 <0>         0.1202
     38 C28         4.6269   -4.2687    6.3965 C.ar      1 <0>        -0.1459
     39 C29         4.1133   -4.9358    7.4917 C.ar      1 <0>        -0.0772
     40 C30         3.5080   -4.2270    8.5130 C.ar      1 <0>        -0.1515
     41 C31         3.4151   -2.8494    8.4410 C.ar      1 <0>        -0.0797
     42 C32         3.9327   -2.1771    7.3507 C.ar      1 <0>        -0.2106
     43 N4         -2.5027    3.8528    3.2413 N.4       1 <0>        -0.4941
     44 C33        -3.3058    4.9386    2.6632 C.3       1 <0>        -0.0504
     45 H4          0.5558    5.1890    2.6410 H         1 <0>         0.1120
     46 H5         -1.0128    6.0274    2.7110 H         1 <0>         0.0994
     47 H6         -0.3731    5.2138    4.1592 H         1 <0>         0.0903
     48 H7         -1.2258    3.8346    1.5731 H         1 <0>         0.1665
     49 H8          1.3146    3.1397    2.1441 H         1 <0>         0.4194
     50 H9          2.0109   -0.6887    2.6595 H         1 <0>         0.0909
     51 H10         0.9868    1.3204    0.6023 H         1 <0>         0.0564
     52 H11         2.6741    0.7804    0.7752 H         1 <0>         0.0763
     53 H12         1.5180   -0.4744   -1.0241 H         1 <0>         0.0657
     54 H13         1.9742   -1.5536    0.3158 H         1 <0>         0.0648
     55 H14        -0.7778   -0.3016   -0.1032 H         1 <0>         0.0554
     56 H15        -0.3477   -1.9970   -0.4330 H         1 <0>         0.0651
     57 H16        -1.4410   -1.7707    1.7811 H         1 <0>         0.0642
     58 H17         0.2462   -2.3106    1.9539 H         1 <0>         0.0654
     59 H18        -0.2849   -0.5159    3.5804 H         1 <0>         0.0693
     60 H19        -0.7411    0.5634    2.2405 H         1 <0>         0.0555
     61 H20         2.9836   -0.0184    5.4656 H         1 <0>         0.0840
     62 H21         3.2497   -1.0323    4.0200 H         1 <0>         0.0918
     63 H22         7.0301   -0.0745    4.8766 H         1 <0>         0.1086
     64 H23         6.2099   -0.7988    3.4527 H         1 <0>         0.1022
     65 H24         7.5892    2.6423    3.5063 H         1 <0>         0.4013
     66 H25         7.4770    2.1872    0.6247 H         1 <0>         0.0982
     67 H26         9.3769    3.7567    2.4147 H         1 <0>         0.0731
     68 H27         9.6734    2.1811    1.6355 H         1 <0>         0.0770
     69 H28        10.7601    3.8744    0.2704 H         1 <0>         0.0775
     70 H29         9.3034    3.3430   -0.6091 H         1 <0>         0.0698
     71 H30         9.6303    5.8489    1.0917 H         1 <0>         0.0784
     72 H31         9.3530    5.7673   -0.6618 H         1 <0>         0.0780
     73 H32         5.0715    3.4410    1.6452 H         1 <0>         0.1627
     74 H33         3.8426    5.4930    1.0825 H         1 <0>         0.1108
     75 H34         5.0510    7.4328    0.1563 H         1 <0>         0.1172
     76 H35         7.4799    7.3076   -0.1936 H         1 <0>         0.1201
     77 H36         5.0990   -4.8229    5.5987 H         1 <0>         0.1327
     78 H37         4.1843   -6.0119    7.5502 H         1 <0>         0.1328
     79 H38         3.1067   -4.7504    9.3683 H         1 <0>         0.1268
     80 H39         2.9415   -2.2980    9.2398 H         1 <0>         0.1259
     81 H40         3.8638   -1.1006    7.2970 H         1 <0>         0.1253
     82 H41        -2.9397    2.9664    3.0382 H         1 <0>         0.4375
     83 H42        -3.3730    4.8056    1.5835 H         1 <0>         0.1266
     84 H43        -4.3066    4.9196    3.0947 H         1 <0>         0.1336
     85 H44        -2.8336    5.8962    2.8826 H         1 <0>         0.1275
     86 H45        -2.4404    3.9760    4.2408 H         1 <0>         0.4347
@<TRIPOS>BOND
     1    1    2 1
     2    1   45 1
     3    1   46 1
     4    1   47 1
     5    2    3 1
     6    2   43 1
     7    2   48 1
     8    3    4 2
     9    3    5 am
    10    5    6 1
    11    5   49 1
    12    6    7 1
    13    6    8 1
    14    6   14 1
    15    8   13 1
    16    8    9 1
    17    8   50 1
    18    9   10 1
    19    9   51 1
    20    9   52 1
    21   10   11 1
    22   10   53 1
    23   10   54 1
    24   11   12 1
    25   11   55 1
    26   11   56 1
    27   12   13 1
    28   12   57 1
    29   12   58 1
    30   13   59 1
    31   13   60 1
    32   14   15 2
    33   14   16 am
    34   16   21 1
    35   16   17 1
    36   17   18 1
    37   17   61 1
    38   17   62 1
    39   18   19 1
    40   18   20 1
    41   18   36 1
    42   20   21 1
    43   20   63 1
    44   20   64 1
    45   21   22 1
    46   21   23 1
    47   23   24 2
    48   23   25 am
    49   25   26 1
    50   25   65 1
    51   26   31 1
    52   26   27 1
    53   26   66 1
    54   27   28 1
    55   27   67 1
    56   27   68 1
    57   28   29 1
    58   28   69 1
    59   28   70 1
    60   29   30 1
    61   29   71 1
    62   29   72 1
    63   30   35 ar
    64   30   31 ar
    65   31   32 ar
    66   32   33 ar
    67   32   73 1
    68   33   34 ar
    69   33   74 1
    70   34   35 ar
    71   34   75 1
    72   35   76 1
    73   36   37 1
    74   37   42 ar
    75   37   38 ar
    76   38   39 ar
    77   38   77 1
    78   39   40 ar
    79   39   78 1
    80   40   41 ar
    81   40   79 1
    82   41   42 ar
    83   41   80 1
    84   42   81 1
    85   43   44 1
    86   43   82 1
    87   43   86 1
    88   44   83 1
    89   44   84 1
    90   44   85 1
@<TRIPOS>MOLECULE
CHEMBL188510__3
   86    90     0     0     0
SMALL
USER_CHARGES

@<TRIPOS>ATOM
      1 C1          0.2838    5.4730    4.0162 C.3       1 <0>        -0.1825
      2 C2         -0.5984    4.3148    3.5456 C.3       1 <0>         0.0050
      3 C3          0.0526    3.0062    3.9126 C.2       1 <0>         0.5054
      4 O1         -0.5223    2.2265    4.6423 O.2       1 <0>        -0.5207
      5 N1          1.2738    2.7023    3.4300 N.am      1 <0>        -0.6805
      6 C4          1.9066    1.4301    3.7868 C.3       1 <0>         0.1375
      7 H1          1.6418    1.1672    4.8109 H         1 <0>         0.1182
      8 C5          1.4196    0.3341    2.8367 C.3       1 <0>        -0.0962
      9 C6          1.6576    0.7707    1.3898 C.3       1 <0>        -0.1126
     10 C7          1.1707   -0.3253    0.4397 C.3       1 <0>        -0.1198
     11 C8         -0.3242   -0.5647    0.6609 C.3       1 <0>        -0.1191
     12 C9         -0.5622   -1.0013    2.1078 C.3       1 <0>        -0.1237
     13 C10        -0.0752    0.0947    3.0579 C.3       1 <0>        -0.0992
     14 C11         3.4033    1.5644    3.6736 C.2       1 <0>         0.5360
     15 O2          3.8841    2.4910    3.0561 O.2       1 <0>        -0.5057
     16 N2          4.2077    0.6549    4.2586 N.am      1 <0>        -0.5938
     17 C12         3.7636   -0.5730    4.9343 C.3       1 <0>         0.0724
     18 C13         5.0284   -1.3107    5.4219 C.3       1 <0>         0.0792
     19 H2          5.2349   -1.0735    6.4655 H         1 <0>         0.1012
     20 C14         6.1393   -0.7427    4.4996 C.3       1 <0>        -0.1181
     21 C15         5.6790    0.7234    4.3214 C.3       1 <0>         0.1199
     22 H3          5.9948    1.3240    5.1745 H         1 <0>         0.1040
     23 C16         6.2326    1.2957    3.0419 C.2       1 <0>         0.5211
     24 O3          5.6419    1.1261    1.9963 O.2       1 <0>        -0.5046
     25 N3          7.3840    1.9960    3.0596 N.am      1 <0>        -0.7187
     26 C17         7.9221    2.5524    1.8158 C.3       1 <0>         0.1941
     27 C18         8.7829    3.7716    2.1404 C.3       1 <0>        -0.1251
     28 C19         9.5083    4.2058    0.8613 C.3       1 <0>        -0.1159
     29 C20        10.5606    3.1516    0.5231 C.3       1 <0>        -0.0851
     30 C21         9.9482    1.7754    0.5160 C.ar      1 <0>        -0.0674
     31 C22         8.7383    1.4994    1.1129 C.ar      1 <0>        -0.0994
     32 C23         8.2323    0.2068    1.0759 C.ar      1 <0>        -0.1067
     33 C24         8.9300   -0.8015    0.4431 C.ar      1 <0>        -0.1274
     34 C25        10.1425   -0.5237   -0.1594 C.ar      1 <0>        -0.1117
     35 C26        10.6479    0.7596   -0.1220 C.ar      1 <0>        -0.1246
     36 O4          4.8908   -2.7219    5.2437 O.3       1 <0>        -0.2945
     37 C27         4.3412   -3.4227    6.2701 C.ar      1 <0>         0.1204
     38 C28         4.2637   -4.8063    6.2039 C.ar      1 <0>        -0.1459
     39 C29         3.7049   -5.5164    7.2489 C.ar      1 <0>        -0.0771
     40 C30         3.2227   -4.8493    8.3598 C.ar      1 <0>        -0.1516
     41 C31         3.2983   -3.4704    8.4280 C.ar      1 <0>        -0.0796
     42 C32         3.8618   -2.7562    7.3884 C.ar      1 <0>        -0.2107
     43 N4         -1.9135    4.4063    4.1938 N.4       1 <0>        -0.4941
     44 C33        -2.5983    5.6249    3.7422 C.3       1 <0>        -0.0504
     45 H4          1.2596    5.4051    3.5353 H         1 <0>         0.1120
     46 H5         -0.1871    6.4195    3.7508 H         1 <0>         0.0995
     47 H6          0.4073    5.4193    5.0979 H         1 <0>         0.0902
     48 H7         -0.7219    4.3685    2.4640 H         1 <0>         0.1666
     49 H8          1.7336    3.3259    2.8464 H         1 <0>         0.4194
     50 H9          1.9682   -0.5871    3.0332 H         1 <0>         0.0915
     51 H10         1.1091    1.6919    1.1933 H         1 <0>         0.0564
     52 H11         2.7226    0.9413    1.2322 H         1 <0>         0.0750
     53 H12         1.3402   -0.0143   -0.5911 H         1 <0>         0.0659
     54 H13         1.7192   -1.2465    0.6362 H         1 <0>         0.0651
     55 H14        -0.8727    0.3565    0.4644 H         1 <0>         0.0555
     56 H15        -0.6711   -1.3455   -0.0159 H         1 <0>         0.0653
     57 H16        -1.6272   -1.1719    2.2654 H         1 <0>         0.0644
     58 H17        -0.0137   -1.9225    2.3043 H         1 <0>         0.0656
     59 H18        -0.2448   -0.2164    4.0887 H         1 <0>         0.0695
     60 H19        -0.6237    1.0159    2.8614 H         1 <0>         0.0557
     61 H20         3.1309   -0.3199    5.7850 H         1 <0>         0.0843
     62 H21         3.2136   -1.2027    4.2350 H         1 <0>         0.0921
     63 H22         7.1136   -0.7919    4.9857 H         1 <0>         0.1085
     64 H23         6.1556   -1.2627    3.5417 H         1 <0>         0.1018
     65 H24         7.8563    2.1317    3.8959 H         1 <0>         0.4006
     66 H25         7.0970    2.8568    1.1718 H         1 <0>         0.0988
     67 H26         8.1494    4.5838    2.4969 H         1 <0>         0.0743
     68 H27         9.5134    3.5117    2.9065 H         1 <0>         0.0732
     69 H28         8.7930    4.2862    0.0428 H         1 <0>         0.0691
     70 H29         9.9922    5.1690    1.0226 H         1 <0>         0.0765
     71 H30        10.9790    3.3640   -0.4607 H         1 <0>         0.0785
     72 H31        11.3567    3.1869    1.2668 H         1 <0>         0.0790
     73 H32         7.2850   -0.0112    1.5465 H         1 <0>         0.1253
     74 H33         8.5302   -1.8045    0.4190 H         1 <0>         0.1197
     75 H34        10.6925   -1.3084   -0.6575 H         1 <0>         0.1227
     76 H35        11.5955    0.9759   -0.5928 H         1 <0>         0.1225
     77 H36         4.6396   -5.3277    5.3361 H         1 <0>         0.1326
     78 H37         3.6444   -6.5935    7.1978 H         1 <0>         0.1327
     79 H38         2.7859   -5.4063    9.1755 H         1 <0>         0.1267
     80 H39         2.9206   -2.9517    9.2967 H         1 <0>         0.1259
     81 H40         3.9246   -1.6794    7.4441 H         1 <0>         0.1253
     82 H41        -2.4665    3.5989    3.9480 H         1 <0>         0.4375
     83 H42        -2.7280    5.5891    2.6605 H         1 <0>         0.1266
     84 H43        -3.5741    5.6928    4.2231 H         1 <0>         0.1336
     85 H44        -2.0009    6.4971    4.0078 H         1 <0>         0.1275
     86 H45        -1.7933    4.4395    5.1951 H         1 <0>         0.4346
@<TRIPOS>BOND
     1    1    2 1
     2    1   45 1
     3    1   46 1
     4    1   47 1
     5    2    3 1
     6    2   43 1
     7    2   48 1
     8    3    4 2
     9    3    5 am
    10    5    6 1
    11    5   49 1
    12    6    7 1
    13    6    8 1
    14    6   14 1
    15    8   13 1
    16    8    9 1
    17    8   50 1
    18    9   10 1
    19    9   51 1
    20    9   52 1
    21   10   11 1
    22   10   53 1
    23   10   54 1
    24   11   12 1
    25   11   55 1
    26   11   56 1
    27   12   13 1
    28   12   57 1
    29   12   58 1
    30   13   59 1
    31   13   60 1
    32   14   15 2
    33   14   16 am
    34   16   21 1
    35   16   17 1
    36   17   18 1
    37   17   61 1
    38   17   62 1
    39   18   19 1
    40   18   20 1
    41   18   36 1
    42   20   21 1
    43   20   63 1
    44   20   64 1
    45   21   22 1
    46   21   23 1
    47   23   24 2
    48   23   25 am
    49   25   26 1
    50   25   65 1
    51   26   31 1
    52   26   27 1
    53   26   66 1
    54   27   28 1
    55   27   67 1
    56   27   68 1
    57   28   29 1
    58   28   69 1
    59   28   70 1
    60   29   30 1
    61   29   71 1
    62   29   72 1
    63   30   35 ar
    64   30   31 ar
    65   31   32 ar
    66   32   33 ar
    67   32   73 1
    68   33   34 ar
    69   33   74 1
    70   34   35 ar
    71   34   75 1
    72   35   76 1
    73   36   37 1
    74   37   42 ar
    75   37   38 ar
    76   38   39 ar
    77   38   77 1
    78   39   40 ar
    79   39   78 1
    80   40   41 ar
    81   40   79 1
    82   41   42 ar
    83   41   80 1
    84   42   81 1
    85   43   44 1
    86   43   82 1
    87   43   86 1
    88   44   83 1
    89   44   84 1
    90   44   85 1
@<TRIPOS>MOLECULE
CHEMBL516172
   70    74     0     0     0
SMALL
USER_CHARGES

@<TRIPOS>ATOM
      1 C1         -0.0187    1.5258    0.0104 C.3       1 <0>        -0.1797
      2 C2          0.0021   -0.0041    0.0020 C.3       1 <0>         0.0072
      3 H1          0.5123   -0.3556   -0.8948 H         1 <0>         0.1659
      4 C3          0.7309   -0.5033    1.2229 C.2       1 <0>         0.5161
      5 O1          0.1587   -1.2128    2.0229 O.2       1 <0>        -0.5185
      6 N1          2.0187   -0.1613    1.4257 N.am      1 <0>        -0.6805
      7 C4          2.7273   -0.6466    2.6126 C.3       1 <0>         0.1527
      8 H2          2.3775   -1.6517    2.8484 H         1 <0>         0.1213
      9 C5          4.2057   -0.6977    2.3158 C.3       1 <0>        -0.0855
     10 C6          5.0301   -1.3933    3.3539 C.ar      1 <0>        -0.0666
     11 C7          6.0466   -2.1814    2.7810 C.ar      1 <0>        -0.1210
     12 C8          6.8897   -2.9486    3.5431 C.ar      1 <0>        -0.1108
     13 C9          6.7348   -2.9585    4.9177 C.ar      1 <0>        -0.1072
     14 C10         5.7573   -2.1769    5.4811 C.ar      1 <0>        -0.1163
     15 C11         4.9156   -1.3658    4.7019 C.ar      1 <0>        -0.0782
     16 C12         4.0179   -0.5011    5.5421 C.3       1 <0>         0.1742
     17 H3          3.4139   -1.1361    6.1902 H         1 <0>         0.0908
     18 C13         4.9643    0.3639    6.4187 C.3       1 <0>        -0.1237
     19 C14         4.1353    1.6184    6.7454 C.3       1 <0>        -0.1295
     20 C15         3.0357    1.6593    5.6781 C.3       1 <0>         0.1249
     21 H4          2.0581    1.6997    6.1584 H         1 <0>         0.1052
     22 N2          3.1528    0.4430    4.8598 N.am      1 <0>        -0.5874
     23 C16         2.4264    0.2507    3.7560 C.2       1 <0>         0.5396
     24 O2          1.4035    0.8969    3.6722 O.2       1 <0>        -0.5281
     25 C17         3.2222    2.8711    4.8018 C.2       1 <0>         0.5187
     26 O3          3.4261    2.7349    3.6140 O.2       1 <0>        -0.5252
     27 N3          3.1625    4.1061    5.3380 N.am      1 <0>        -0.7195
     28 C18         3.3439    5.2841    4.4861 C.3       1 <0>         0.1911
     29 H5          4.0729    5.0564    3.7084 H         1 <0>         0.0982
     30 C19         3.8587    6.4449    5.3348 C.3       1 <0>        -0.1275
     31 C20         3.8343    7.7173    4.4796 C.3       1 <0>        -0.1162
     32 C21         2.3775    8.1126    4.2463 C.3       1 <0>        -0.0871
     33 C22         1.5866    6.9391    3.7303 C.ar      1 <0>        -0.0622
     34 C23         2.0284    5.6404    3.8446 C.ar      1 <0>        -0.0995
     35 C24         1.2463    4.6032    3.3537 C.ar      1 <0>        -0.1049
     36 C25         0.0331    4.8644    2.7507 C.ar      1 <0>        -0.1316
     37 C26        -0.4083    6.1690    2.6335 C.ar      1 <0>        -0.1141
     38 C27         0.3663    7.1996    3.1207 C.ar      1 <0>        -0.1262
     39 N4         -1.3761   -0.5125    0.0124 N.4       1 <0>        -0.4948
     40 C28        -2.0500   -0.1262   -1.2343 C.3       1 <0>        -0.0498
     41 H6          1.0039    1.9031    0.0027 H         1 <0>         0.1104
     42 H7         -0.5459    1.8868   -0.8726 H         1 <0>         0.0969
     43 H8         -0.5289    1.8773    0.9072 H         1 <0>         0.0917
     44 H9          2.4764    0.4061    0.7859 H         1 <0>         0.4140
     45 H10         4.3485   -1.2084    1.3635 H         1 <0>         0.0938
     46 H11         4.5719    0.3238    2.2127 H         1 <0>         0.0932
     47 H12         6.1657   -2.1819    1.7076 H         1 <0>         0.1222
     48 H13         7.6647   -3.5381    3.0760 H         1 <0>         0.1291
     49 H14         7.3725   -3.5715    5.5374 H         1 <0>         0.1313
     50 H15         5.6313   -2.1861    6.5537 H         1 <0>         0.1272
     51 H16         5.2288   -0.1672    7.3331 H         1 <0>         0.0957
     52 H17         5.8607    0.6339    5.8604 H         1 <0>         0.0839
     53 H18         3.6953    1.5331    7.7390 H         1 <0>         0.0958
     54 H19         4.7580    2.5107    6.6817 H         1 <0>         0.0894
     55 H20         2.9995    4.2150    6.2880 H         1 <0>         0.4038
     56 H21         3.2168    6.5757    6.2059 H         1 <0>         0.0745
     57 H22         4.8792    6.2392    5.6577 H         1 <0>         0.0776
     58 H23         4.3536    8.5207    5.0019 H         1 <0>         0.0787
     59 H24         4.3206    7.5261    3.5230 H         1 <0>         0.0695
     60 H25         1.9428    8.4540    5.1857 H         1 <0>         0.0803
     61 H26         2.3370    8.9218    3.5171 H         1 <0>         0.0793
     62 H27         1.5908    3.5836    3.4443 H         1 <0>         0.1363
     63 H28        -0.5694    4.0524    2.3713 H         1 <0>         0.1101
     64 H29        -1.3561    6.3800    2.1606 H         1 <0>         0.1196
     65 H30         0.0203    8.2185    3.0288 H         1 <0>         0.1225
     66 H31        -1.3629   -1.5185    0.0898 H         1 <0>         0.4367
     67 H32        -1.5132   -0.5489   -2.0836 H         1 <0>         0.1264
     68 H33        -3.0726   -0.5034   -1.2266 H         1 <0>         0.1328
     69 H34        -2.0643    0.9605   -1.3179 H         1 <0>         0.1270
     70 H35        -1.8730   -0.1212    0.7986 H         1 <0>         0.4356
@<TRIPOS>BOND
     1    1    2 1
     2    1   41 1
     3    1   42 1
     4    1   43 1
     5    2    3 1
     6    2    4 1
     7    2   39 1
     8    4    5 2
     9    4    6 am
    10    6    7 1
    11    6   44 1
    12    7    8 1
    13    7   23 1
    14    7    9 1
    15    9   10 1
    16    9   45 1
    17    9   46 1
    18   10   15 ar
    19   10   11 ar
    20   11   12 ar
    21   11   47 1
    22   12   13 ar
    23   12   48 1
    24   13   14 ar
    25   13   49 1
    26   14   15 ar
    27   14   50 1
    28   15   16 1
    29   16   17 1
    30   16   22 1
    31   16   18 1
    32   18   19 1
    33   18   51 1
    34   18   52 1
    35   19   20 1
    36   19   53 1
    37   19   54 1
    38   20   21 1
    39   20   22 1
    40   20   25 1
    41   22   23 am
    42   23   24 2
    43   25   26 2
    44   25   27 am
    45   27   28 1
    46   27   55 1
    47   28   29 1
    48   28   34 1
    49   28   30 1
    50   30   31 1
    51   30   56 1
    52   30   57 1
    53   31   32 1
    54   31   58 1
    55   31   59 1
    56   32   33 1
    57   32   60 1
    58   32   61 1
    59   33   38 ar
    60   33   34 ar
    61   34   35 ar
    62   35   36 ar
    63   35   62 1
    64   36   37 ar
    65   36   63 1
    66   37   38 ar
    67   37   64 1
    68   38   65 1
    69   39   40 1
    70   39   66 1
    71   39   70 1
    72   40   67 1
    73   40   68 1
    74   40   69 1
@<TRIPOS>MOLECULE
CHEMBL188350
   80    81     0     0     0
SMALL
USER_CHARGES

@<TRIPOS>ATOM
      1 C1         -0.9091    0.9646    1.8633 C.3       1 <0>        -0.1846
      2 C2         -0.5254   -0.2786    1.0583 C.3       1 <0>         0.0093
      3 H1         -0.3145    0.0066    0.0277 H         1 <0>         0.1697
      4 C3          0.7004   -0.9114    1.6652 C.2       1 <0>         0.5041
      5 O1          0.6535   -2.0510    2.0776 O.2       1 <0>        -0.5234
      6 N1          1.8487   -0.2109    1.7496 N.am      1 <0>        -0.6818
      7 C4          3.0403   -0.8261    2.3396 C.3       1 <0>         0.1297
      8 H2          2.7425   -1.4891    3.1519 H         1 <0>         0.1209
      9 C5          3.7813   -1.6309    1.2700 C.3       1 <0>        -0.0988
     10 C6          5.0781   -2.1895    1.8593 C.3       1 <0>        -0.1590
     11 C7          2.8968   -2.7862    0.7969 C.3       1 <0>        -0.1360
     12 C8          3.9477    0.2505    2.8768 C.2       1 <0>         0.5189
     13 O2          4.0226    1.3196    2.3089 O.2       1 <0>        -0.5271
     14 N2          4.6759    0.0254    3.9883 N.am      1 <0>        -0.5798
     15 C9          4.4855   -1.2110    4.7508 C.3       1 <0>         0.0672
     16 C10         5.6578    1.0170    4.4340 C.3       1 <0>         0.0936
     17 C11         4.9953    1.9942    5.3706 C.2       1 <0>         0.5018
     18 O3          3.8187    1.8742    5.6393 O.2       1 <0>        -0.5201
     19 N3          5.7102    3.0016    5.9096 N.am      1 <0>        -0.7051
     20 C12         5.0661    3.9516    6.8200 C.3       1 <0>         0.1443
     21 H3          4.0374    4.1199    6.5014 H         1 <0>         0.1065
     22 C13         5.0735    3.3821    8.2401 C.3       1 <0>        -0.0926
     23 C14         4.2189    2.1417    8.2883 C.ar      1 <0>        -0.0501
     24 C15         2.8710    2.2419    8.5778 C.ar      1 <0>        -0.1035
     25 C16         2.0871    1.1041    8.6220 C.ar      1 <0>        -0.1141
     26 C17         2.6511   -0.1338    8.3762 C.ar      1 <0>        -0.1260
     27 C18         3.9989   -0.2338    8.0858 C.ar      1 <0>        -0.1173
     28 C19         4.7819    0.9044    8.0374 C.ar      1 <0>        -0.1087
     29 C20         5.8186    5.2571    6.7985 C.2       1 <0>         0.5136
     30 O4          6.7966    5.3817    6.0922 O.2       1 <0>        -0.5409
     31 N4          5.4048    6.2862    7.5641 N.am      1 <0>        -0.6834
     32 C21         6.1363    7.5553    7.5432 C.3       1 <0>         0.0841
     33 H4          6.5165    7.7390    6.5383 H         1 <0>         0.0850
     34 C22         5.1964    8.6924    7.9486 C.3       1 <0>        -0.0774
     35 C23         4.1113    8.8406    6.9134 C.ar      1 <0>        -0.0709
     36 C24         4.2986    9.6829    5.8330 C.ar      1 <0>        -0.0987
     37 C25         3.3053    9.8207    4.8829 C.ar      1 <0>        -0.1398
     38 C26         2.1193    9.1129    5.0132 C.ar      1 <0>         0.0854
     39 C27         1.9340    8.2681    6.0980 C.ar      1 <0>        -0.1427
     40 C28         2.9325    8.1297    7.0426 C.ar      1 <0>        -0.1033
     41 O5          1.1404    9.2472    4.0801 O.3       1 <0>        -0.5014
     42 C29         7.2889    7.4868    8.5116 C.2       1 <0>         0.4911
     43 O6          7.4814    6.4719    9.1593 O.co2     1 <0>        -0.6820
     44 O7          8.0288    8.4462    8.6475 O.co2     1 <0>        -0.6911
     45 N5         -1.6359   -1.2400    1.0829 N.4       1 <0>        -0.6195
     46 H5         -0.0851    1.6779    1.8450 H         1 <0>         0.1134
     47 H6         -1.7957    1.4223    1.4244 H         1 <0>         0.0998
     48 H7         -1.1200    0.6793    2.8940 H         1 <0>         0.0916
     49 H8          1.8862    0.7005    1.4198 H         1 <0>         0.4186
     50 H9          4.0156   -0.9832    0.4252 H         1 <0>         0.0837
     51 H10         4.8410   -2.8921    2.6583 H         1 <0>         0.0663
     52 H11         5.6402   -2.7028    1.0791 H         1 <0>         0.0703
     53 H12         5.6768   -1.3718    2.2604 H         1 <0>         0.0639
     54 H13         1.9730   -2.3882    0.3771 H         1 <0>         0.0448
     55 H14         3.4248   -3.3596    0.0350 H         1 <0>         0.0604
     56 H15         2.6626   -3.4339    1.6417 H         1 <0>         0.0665
     57 H16         5.0906   -2.0048    4.3128 H         1 <0>         0.0690
     58 H17         4.7901   -1.0506    5.7850 H         1 <0>         0.0859
     59 H18         3.4342   -1.4975    4.7219 H         1 <0>         0.0706
     60 H19         6.4736    0.5131    4.9523 H         1 <0>         0.1132
     61 H20         6.0519    1.5520    3.5700 H         1 <0>         0.1157
     62 H21         6.6512    3.0976    5.6947 H         1 <0>         0.4112
     63 H22         6.0950    3.1309    8.5255 H         1 <0>         0.0884
     64 H23         4.6752    4.1247    8.9314 H         1 <0>         0.0903
     65 H24         2.4303    3.2090    8.7699 H         1 <0>         0.1156
     66 H25         1.0341    1.1823    8.8490 H         1 <0>         0.1124
     67 H26         2.0389   -1.0227    8.4115 H         1 <0>         0.1104
     68 H27         4.4397   -1.2010    7.8941 H         1 <0>         0.1117
     69 H28         5.8341    0.8266    7.8068 H         1 <0>         0.1110
     70 H29         4.6226    6.1865    8.1291 H         1 <0>         0.3892
     71 H30         4.7475    8.4655    8.9156 H         1 <0>         0.0739
     72 H31         5.7606    9.6224    8.0193 H         1 <0>         0.0977
     73 H32         5.2220   10.2337    5.7320 H         1 <0>         0.1299
     74 H33         3.4517   10.4793    4.0395 H         1 <0>         0.1256
     75 H34         1.0116    7.7160    6.2017 H         1 <0>         0.1224
     76 H35         2.7905    7.4688    7.8849 H         1 <0>         0.1221
     77 H36         1.2052    8.6179    3.3488 H         1 <0>         0.3833
     78 H37        -2.4565   -0.8163    0.6766 H         1 <0>         0.4426
     79 H38        -1.3828   -2.0599    0.5521 H         1 <0>         0.4417
     80 H39        -1.8310   -1.5041    2.0370 H         1 <0>         0.4405
@<TRIPOS>BOND
     1    1    2 1
     2    1   46 1
     3    1   47 1
     4    1   48 1
     5    2    3 1
     6    2    4 1
     7    2   45 1
     8    4    5 2
     9    4    6 am
    10    6    7 1
    11    6   49 1
    12    7    8 1
    13    7    9 1
    14    7   12 1
    15    9   10 1
    16    9   11 1
    17    9   50 1
    18   10   51 1
    19   10   52 1
    20   10   53 1
    21   11   54 1
    22   11   55 1
    23   11   56 1
    24   12   13 2
    25   12   14 am
    26   14   15 1
    27   14   16 1
    28   15   57 1
    29   15   58 1
    30   15   59 1
    31   16   17 1
    32   16   60 1
    33   16   61 1
    34   17   18 2
    35   17   19 am
    36   19   20 1
    37   19   62 1
    38   20   21 1
    39   20   22 1
    40   20   29 1
    41   22   23 1
    42   22   63 1
    43   22   64 1
    44   23   28 ar
    45   23   24 ar
    46   24   25 ar
    47   24   65 1
    48   25   26 ar
    49   25   66 1
    50   26   27 ar
    51   26   67 1
    52   27   28 ar
    53   27   68 1
    54   28   69 1
    55   29   30 2
    56   29   31 am
    57   31   32 1
    58   31   70 1
    59   32   33 1
    60   32   34 1
    61   32   42 1
    62   34   35 1
    63   34   71 1
    64   34   72 1
    65   35   40 ar
    66   35   36 ar
    67   36   37 ar
    68   36   73 1
    69   37   38 ar
    70   37   74 1
    71   38   39 ar
    72   38   41 1
    73   39   40 ar
    74   39   75 1
    75   40   76 1
    76   41   77 1
    77   42   43 2
    78   42   44 1
    79   45   78 1
    80   45   79 1
    81   45   80 1
@<TRIPOS>MOLECULE
CHEMBL365059
   64    64     0     0     0
SMALL
USER_CHARGES

@<TRIPOS>ATOM
      1 C1          0.1080   -0.8309   -3.9257 C.3       1 <0>        -0.1541
      2 C2          0.2263   -1.9941   -2.9389 C.3       1 <0>        -0.1249
      3 C3          1.0083   -1.5388   -1.7051 C.3       1 <0>        -0.0940
      4 H1          0.5357   -0.6523   -1.2822 H         1 <0>         0.0926
      5 C4          2.4469   -1.2073   -2.1069 C.3       1 <0>        -0.1476
      6 C5          1.0150   -2.6593   -0.6634 C.3       1 <0>         0.1345
      7 H2          1.6535   -2.3742    0.1728 H         1 <0>         0.1110
      8 C6         -0.3887   -2.8921   -0.1670 C.2       1 <0>         0.5103
      9 O1         -1.0360   -3.8248   -0.5936 O.2       1 <0>        -0.5343
     10 N1         -0.9249   -2.0638    0.7512 N.am      1 <0>        -0.8517
     11 N2          1.5279   -3.8891   -1.2722 N.am      1 <0>        -0.7031
     12 C7          2.0961   -4.8369   -0.5007 C.2       1 <0>         0.5128
     13 O2          2.1828   -4.6717    0.6977 O.2       1 <0>        -0.5177
     14 C8          2.6237   -6.1020   -1.1270 C.3       1 <0>         0.1219
     15 H3          3.3910   -5.8594   -1.8622 H         1 <0>         0.1053
     16 C9          1.4712   -6.8718   -1.8057 C.3       1 <0>        -0.1277
     17 C10         1.8114   -8.3531   -1.4934 C.3       1 <0>        -0.1309
     18 C11         2.4180   -8.2399   -0.0726 C.3       1 <0>         0.0888
     19 N3          3.1856   -6.9776   -0.0882 N.am      1 <0>        -0.5930
     20 C12         4.2261   -6.6771    0.7140 C.2       1 <0>         0.5367
     21 O3          4.7300   -5.5750    0.6664 O.2       1 <0>        -0.5159
     22 C13         4.7635   -7.7106    1.6701 C.3       1 <0>         0.1357
     23 H4          4.5089   -8.7070    1.3088 H         1 <0>         0.1161
     24 C14         4.1453   -7.4963    3.0531 C.3       1 <0>        -0.0962
     25 C15         2.6225   -7.6061    2.9537 C.3       1 <0>        -0.1602
     26 C16         4.6715   -8.5611    4.0176 C.3       1 <0>        -0.1366
     27 N4          6.2199   -7.5815    1.7608 N.am      1 <0>        -0.6850
     28 C17         6.9697   -8.6429    2.1181 C.2       1 <0>         0.5041
     29 O4          6.4386   -9.7051    2.3644 O.2       1 <0>        -0.5203
     30 C18         8.4679   -8.5101    2.2114 C.3       1 <0>         0.0092
     31 H5          8.7198   -7.7492    2.9501 H         1 <0>         0.1705
     32 C19         9.0297   -8.1028    0.8478 C.3       1 <0>        -0.1838
     33 N5          9.0494   -9.7969    2.6161 N.4       1 <0>        -0.6198
     34 H6         -0.4154   -0.0020   -3.4492 H         1 <0>         0.0565
     35 H7          1.1044   -0.5067   -4.2263 H         1 <0>         0.0593
     36 H8         -0.4491   -1.1553   -4.8046 H         1 <0>         0.0586
     37 H9         -0.7700   -2.3183   -2.6383 H         1 <0>         0.0705
     38 H10         0.7498   -2.8230   -3.4153 H         1 <0>         0.0624
     39 H11         2.4421   -0.4091   -2.8491 H         1 <0>         0.0687
     40 H12         3.0040   -0.8829   -1.2280 H         1 <0>         0.0591
     41 H13         2.9195   -2.0938   -2.5298 H         1 <0>         0.0576
     42 H14        -0.3851   -1.3595    1.1430 H         1 <0>         0.4025
     43 H15        -1.8505   -2.1719    1.0201 H         1 <0>         0.4046
     44 H16         1.4585   -4.0213   -2.2307 H         1 <0>         0.4055
     45 H17         0.5122   -6.5957   -1.3673 H         1 <0>         0.0922
     46 H18         1.4700   -6.6949   -2.8813 H         1 <0>         0.0978
     47 H19         0.9111   -8.9675   -1.4861 H         1 <0>         0.0963
     48 H20         2.5431   -8.7434   -2.2007 H         1 <0>         0.0832
     49 H21         1.6264   -8.1948    0.6754 H         1 <0>         0.0835
     50 H22         3.0804   -9.0827    0.1253 H         1 <0>         0.0827
     51 H23         4.4149   -6.5067    3.4222 H         1 <0>         0.0841
     52 H24         2.3523   -8.6012    2.6003 H         1 <0>         0.0609
     53 H25         2.1811   -7.4371    3.9359 H         1 <0>         0.0690
     54 H26         2.2492   -6.8583    2.2540 H         1 <0>         0.0721
     55 H27         5.7564   -8.4829    4.0884 H         1 <0>         0.0423
     56 H28         4.2311   -8.4084    5.0029 H         1 <0>         0.0618
     57 H29         4.4020   -9.5507    3.6485 H         1 <0>         0.0673
     58 H30         6.6447   -6.7319    1.5638 H         1 <0>         0.4181
     59 H31         8.5983   -7.1480    0.5475 H         1 <0>         0.1119
     60 H32        10.1134   -8.0067    0.9153 H         1 <0>         0.1009
     61 H33         8.7778   -8.8637    0.1091 H         1 <0>         0.0907
     62 H34         8.8161  -10.5013    1.9323 H         1 <0>         0.4403
     63 H35        10.0525   -9.7080    2.6786 H         1 <0>         0.4437
     64 H36         8.6788  -10.0655    3.5154 H         1 <0>         0.4431
@<TRIPOS>BOND
     1    1    2 1
     2    1   34 1
     3    1   35 1
     4    1   36 1
     5    2    3 1
     6    2   37 1
     7    2   38 1
     8    3    4 1
     9    3    5 1
    10    3    6 1
    11    5   39 1
    12    5   40 1
    13    5   41 1
    14    6    7 1
    15    6    8 1
    16    6   11 1
    17    8    9 2
    18    8   10 am
    19   10   42 1
    20   10   43 1
    21   11   12 am
    22   11   44 1
    23   12   13 2
    24   12   14 1
    25   14   15 1
    26   14   19 1
    27   14   16 1
    28   16   17 1
    29   16   45 1
    30   16   46 1
    31   17   18 1
    32   17   47 1
    33   17   48 1
    34   18   19 1
    35   18   49 1
    36   18   50 1
    37   19   20 am
    38   20   21 2
    39   20   22 1
    40   22   23 1
    41   22   24 1
    42   22   27 1
    43   24   25 1
    44   24   26 1
    45   24   51 1
    46   25   52 1
    47   25   53 1
    48   25   54 1
    49   26   55 1
    50   26   56 1
    51   26   57 1
    52   27   28 am
    53   27   58 1
    54   28   29 2
    55   28   30 1
    56   30   31 1
    57   30   32 1
    58   30   33 1
    59   32   59 1
    60   32   60 1
    61   32   61 1
    62   33   62 1
    63   33   63 1
    64   33   64 1
@<TRIPOS>MOLECULE
CHEMBL534477
   53    55     0     0     0
SMALL
USER_CHARGES

@<TRIPOS>ATOM
      1 C1         -0.0187    1.5258    0.0104 C.3       1 <0>        -0.1824
      2 C2          0.0021   -0.0041    0.0020 C.3       1 <0>         0.0113
      3 H1          0.5123   -0.3556   -0.8948 H         1 <0>         0.1698
      4 C3          0.7309   -0.5033    1.2229 C.2       1 <0>         0.5107
      5 O1          0.1587   -1.2128    2.0229 O.2       1 <0>        -0.5150
      6 N1          2.0187   -0.1613    1.4257 N.am      1 <0>        -0.6884
      7 C4          2.7273   -0.6466    2.6126 C.3       1 <0>         0.1366
      8 H2          2.3829   -1.6519    2.8551 H         1 <0>         0.1290
      9 C5          4.2298   -0.6772    2.3315 C.3       1 <0>        -0.1306
     10 C6          4.9934   -1.0212    3.6101 C.3       1 <0>        -0.1263
     11 C7          4.8007    0.0787    4.6442 C.3       1 <0>         0.1251
     12 C8          5.1038   -0.4550    6.0623 C.3       1 <0>        -0.1298
     13 C9          4.2740    0.4878    6.9670 C.3       1 <0>        -0.1285
     14 C10         3.1875    1.0745    6.0436 C.3       1 <0>         0.1187
     15 H3          2.1983    0.8224    6.4256 H         1 <0>         0.1113
     16 N2          3.3829    0.4702    4.7163 N.am      1 <0>        -0.5863
     17 C11         2.4492    0.2733    3.7745 C.2       1 <0>         0.5298
     18 O2          1.3783    0.8365    3.8576 O.2       1 <0>        -0.5257
     19 C12         3.3394    2.5713    5.9562 C.2       1 <0>         0.5080
     20 O3          3.5681    3.0962    4.8871 O.2       1 <0>        -0.5280
     21 N3          3.2211    3.3265    7.0662 N.am      1 <0>        -0.7229
     22 C13         3.3687    4.7816    6.9813 C.3       1 <0>         0.1644
     23 C14         3.1926    5.3852    8.3509 C.ar      1 <0>        -0.1163
     24 C15         1.9354    5.7644    8.7826 C.ar      1 <0>        -0.1011
     25 C16         1.7739    6.3181   10.0389 C.ar      1 <0>        -0.1203
     26 C17         2.8696    6.4920   10.8636 C.ar      1 <0>        -0.1076
     27 C18         4.1267    6.1119   10.4322 C.ar      1 <0>        -0.1197
     28 C19         4.2875    5.5543    9.1776 C.ar      1 <0>        -0.1001
     29 N4         -1.3761   -0.5125    0.0124 N.4       1 <0>        -0.6202
     30 H4          1.0039    1.9031    0.0027 H         1 <0>         0.1100
     31 H5         -0.5459    1.8868   -0.8726 H         1 <0>         0.0993
     32 H6         -0.5289    1.8773    0.9072 H         1 <0>         0.0926
     33 H7          2.4764    0.4061    0.7859 H         1 <0>         0.4139
     34 H8          4.4404   -1.4290    1.5709 H         1 <0>         0.0919
     35 H9          4.5503    0.3001    1.9705 H         1 <0>         0.0827
     36 H10         4.6211   -1.9639    4.0111 H         1 <0>         0.0817
     37 H11         6.0545   -1.1211    3.3818 H         1 <0>         0.0996
     38 H12         5.4233    0.9406    4.4043 H         1 <0>         0.0946
     39 H13         4.7669   -1.4863    6.1671 H         1 <0>         0.0848
     40 H14         6.1668   -0.3700    6.2880 H         1 <0>         0.0936
     41 H15         3.8161   -0.0745    7.7807 H         1 <0>         0.0942
     42 H16         4.9043    1.2838    7.3634 H         1 <0>         0.0871
     43 H17         3.0382    2.9067    7.9213 H         1 <0>         0.4034
     44 H18         4.3613    5.0246    6.6020 H         1 <0>         0.0778
     45 H19         2.6133    5.1847    6.3067 H         1 <0>         0.0756
     46 H20         1.0794    5.6286    8.1383 H         1 <0>         0.1223
     47 H21         0.7918    6.6151   10.3759 H         1 <0>         0.1259
     48 H22         2.7435    6.9252   11.8449 H         1 <0>         0.1262
     49 H23         4.9827    6.2481   11.0764 H         1 <0>         0.1268
     50 H24         5.2691    5.2539    8.8420 H         1 <0>         0.1240
     51 H25        -1.8641   -0.1783   -0.8050 H         1 <0>         0.4430
     52 H26        -1.3624   -1.5214    0.0069 H         1 <0>         0.4422
     53 H27        -1.8484   -0.1871    0.8426 H         1 <0>         0.4416
@<TRIPOS>BOND
     1    1    2 1
     2    1   30 1
     3    1   31 1
     4    1   32 1
     5    2    3 1
     6    2    4 1
     7    2   29 1
     8    4    5 2
     9    4    6 am
    10    6    7 1
    11    6   33 1
    12    7    8 1
    13    7   17 1
    14    7    9 1
    15    9   10 1
    16    9   34 1
    17    9   35 1
    18   10   11 1
    19   10   36 1
    20   10   37 1
    21   11   16 1
    22   11   12 1
    23   11   38 1
    24   12   13 1
    25   12   39 1
    26   12   40 1
    27   13   14 1
    28   13   41 1
    29   13   42 1
    30   14   15 1
    31   14   16 1
    32   14   19 1
    33   16   17 am
    34   17   18 2
    35   19   20 2
    36   19   21 am
    37   21   22 1
    38   21   43 1
    39   22   23 1
    40   22   44 1
    41   22   45 1
    42   23   28 ar
    43   23   24 ar
    44   24   25 ar
    45   24   46 1
    46   25   26 ar
    47   25   47 1
    48   26   27 ar
    49   26   48 1
    50   27   28 ar
    51   27   49 1
    52   28   50 1
    53   29   51 1
    54   29   52 1
    55   29   53 1
@<TRIPOS>MOLECULE
CHEMBL534477__1
   53    55     0     0     0
SMALL
USER_CHARGES

@<TRIPOS>ATOM
      1 C1         -0.0187    1.5258    0.0104 C.3       1 <0>        -0.1810
      2 C2          0.0021   -0.0041    0.0020 C.3       1 <0>         0.0105
      3 H1          0.5123   -0.3556   -0.8948 H         1 <0>         0.1689
      4 C3          0.7309   -0.5033    1.2229 C.2       1 <0>         0.5033
      5 O1          0.1587   -1.2128    2.0229 O.2       1 <0>        -0.5020
      6 N1          2.0187   -0.1613    1.4257 N.am      1 <0>        -0.6897
      7 C4          2.7273   -0.6466    2.6126 C.3       1 <0>         0.1388
      8 H2          2.3829   -1.6519    2.8551 H         1 <0>         0.1257
      9 C5          4.2298   -0.6772    2.3315 C.3       1 <0>        -0.1364
     10 C6          4.7570    0.7465    2.1546 C.3       1 <0>        -0.1298
     11 C7          4.6075    1.5231    3.4550 C.3       1 <0>         0.1271
     12 C8          4.6361    3.0437    3.1816 C.3       1 <0>        -0.1274
     13 C9          3.8549    3.6222    4.3862 C.3       1 <0>        -0.1285
     14 C10         3.0038    2.4490    4.9119 C.3       1 <0>         0.1180
     15 H3          3.2907    2.2103    5.9360 H         1 <0>         0.1034
     16 N2          3.2720    1.2992    4.0337 N.am      1 <0>        -0.6036
     17 C11         2.4492    0.2733    3.7745 C.2       1 <0>         0.5259
     18 O2          1.4782    0.0851    4.4764 O.2       1 <0>        -0.4816
     19 C12         1.5414    2.8090    4.8578 C.2       1 <0>         0.5099
     20 O3          0.7820    2.1597    4.1703 O.2       1 <0>        -0.5147
     21 N3          1.0774    3.8526    5.5734 N.am      1 <0>        -0.7249
     22 C13        -0.3442    4.2026    5.5208 C.3       1 <0>         0.1695
     23 C14        -0.6004    5.3970    6.4033 C.ar      1 <0>        -0.1179
     24 C15        -0.9261    5.2157    7.7345 C.ar      1 <0>        -0.1001
     25 C16        -1.1612    6.3113    8.5440 C.ar      1 <0>        -0.1188
     26 C17        -1.0700    7.5882    8.0225 C.ar      1 <0>        -0.1068
     27 C18        -0.7434    7.7696    6.6916 C.ar      1 <0>        -0.1204
     28 C19        -0.5041    6.6741    5.8831 C.ar      1 <0>        -0.1016
     29 N4         -1.3761   -0.5125    0.0124 N.4       1 <0>        -0.6203
     30 H4          1.0039    1.9031    0.0027 H         1 <0>         0.1073
     31 H5         -0.5459    1.8868   -0.8726 H         1 <0>         0.0985
     32 H6         -0.5289    1.8773    0.9072 H         1 <0>         0.0928
     33 H7          2.4764    0.4061    0.7859 H         1 <0>         0.4095
     34 H8          4.7446   -1.1525    3.1665 H         1 <0>         0.0969
     35 H9          4.4162   -1.2477    1.4216 H         1 <0>         0.0909
     36 H10         5.8097    0.7101    1.8740 H         1 <0>         0.0969
     37 H11         4.1919    1.2463    1.3679 H         1 <0>         0.0679
     38 H12         5.3842    1.2337    4.1630 H         1 <0>         0.0951
     39 H13         5.6608    3.4151    3.1714 H         1 <0>         0.0934
     40 H14         4.1300    3.2773    2.2449 H         1 <0>         0.0764
     41 H15         4.5460    3.9637    5.1568 H         1 <0>         0.0939
     42 H16         3.2124    4.4411    4.0627 H         1 <0>         0.0831
     43 H17         1.6848    4.3720    6.1232 H         1 <0>         0.4030
     44 H18        -0.6214    4.4431    4.4945 H         1 <0>         0.0717
     45 H19        -0.9393    3.3587    5.8698 H         1 <0>         0.0750
     46 H20        -0.9974    4.2180    8.1419 H         1 <0>         0.1236
     47 H21        -1.4164    6.1696    9.5838 H         1 <0>         0.1270
     48 H22        -1.2543    8.4442    8.6548 H         1 <0>         0.1267
     49 H23        -0.6725    8.7673    6.2841 H         1 <0>         0.1263
     50 H24        -0.2453    6.8159    4.8442 H         1 <0>         0.1216
     51 H25        -1.8641   -0.1783   -0.8050 H         1 <0>         0.4423
     52 H26        -1.3624   -1.5214    0.0069 H         1 <0>         0.4426
     53 H27        -1.8484   -0.1871    0.8426 H         1 <0>         0.4421
@<TRIPOS>BOND
     1    1    2 1
     2    1   30 1
     3    1   31 1
     4    1   32 1
     5    2    3 1
     6    2    4 1
     7    2   29 1
     8    4    5 2
     9    4    6 am
    10    6    7 1
    11    6   33 1
    12    7    8 1
    13    7   17 1
    14    7    9 1
    15    9   10 1
    16    9   34 1
    17    9   35 1
    18   10   11 1
    19   10   36 1
    20   10   37 1
    21   11   16 1
    22   11   12 1
    23   11   38 1
    24   12   13 1
    25   12   39 1
    26   12   40 1
    27   13   14 1
    28   13   41 1
    29   13   42 1
    30   14   15 1
    31   14   16 1
    32   14   19 1
    33   16   17 am
    34   17   18 2
    35   19   20 2
    36   19   21 am
    37   21   22 1
    38   21   43 1
    39   22   23 1
    40   22   44 1
    41   22   45 1
    42   23   28 ar
    43   23   24 ar
    44   24   25 ar
    45   24   46 1
    46   25   26 ar
    47   25   47 1
    48   26   27 ar
    49   26   48 1
    50   27   28 ar
    51   27   49 1
    52   28   50 1
    53   29   51 1
    54   29   52 1
    55   29   53 1
@<TRIPOS>MOLECULE
CHEMBL188934
   78    80     0     0     0
SMALL
USER_CHARGES

@<TRIPOS>ATOM
      1 C1          1.3836    0.3389   -0.2291 C.3       1 <0>        -0.1822
      2 C2          1.3818   -1.1729   -0.4644 C.3       1 <0>         0.0088
      3 H1          0.3690   -1.5579   -0.3455 H         1 <0>         0.1709
      4 C3          1.8696   -1.4647   -1.8601 C.2       1 <0>         0.5053
      5 O1          2.8593   -2.1456   -2.0266 O.2       1 <0>        -0.5306
      6 N1          1.2060   -0.9690   -2.9233 N.am      1 <0>        -0.6774
      7 C4          1.6802   -1.2526   -4.2800 C.3       1 <0>         0.1298
      8 C5          2.7589   -0.2385   -4.6657 C.3       1 <0>        -0.1709
      9 C6          0.5279   -1.1523   -5.2461 C.2       1 <0>         0.5299
     10 O2         -0.5802   -0.8715   -4.8412 O.2       1 <0>        -0.5038
     11 N2          0.7289   -1.3746   -6.5602 N.am      1 <0>        -0.5911
     12 C7          2.0338   -1.6222   -7.1999 C.3       1 <0>         0.0942
     13 C8          1.6987   -2.4038   -8.4947 C.3       1 <0>        -0.1338
     14 C9          0.3761   -1.7231   -8.9360 C.3       1 <0>        -0.1281
     15 C10        -0.3175   -1.4166   -7.5920 C.3       1 <0>         0.1240
     16 H2         -0.8213   -0.4517   -7.6486 H         1 <0>         0.1031
     17 C11        -1.3138   -2.4998   -7.2678 C.2       1 <0>         0.5216
     18 O3         -1.0726   -3.3031   -6.3917 O.2       1 <0>        -0.5318
     19 N3         -2.4728   -2.5760   -7.9514 N.am      1 <0>        -0.6979
     20 C12        -3.4730   -3.5827   -7.5875 C.3       1 <0>         0.1384
     21 H3         -3.0284   -4.3064   -6.9044 H         1 <0>         0.1165
     22 C13        -4.6595   -2.8992   -6.9048 C.3       1 <0>        -0.0907
     23 C14        -4.1891   -2.2133   -5.6481 C.ar      1 <0>        -0.0634
     24 C15        -4.1778   -2.9002   -4.4486 C.ar      1 <0>        -0.1126
     25 C16        -3.7463   -2.2711   -3.2958 C.ar      1 <0>        -0.1202
     26 C17        -3.3256   -0.9551   -3.3427 C.ar      1 <0>        -0.1202
     27 C18        -3.3360   -0.2685   -4.5424 C.ar      1 <0>        -0.0858
     28 C19        -3.7635   -0.8990   -5.6960 C.ar      1 <0>        -0.1048
     29 C20        -3.9481   -4.2908   -8.8301 C.2       1 <0>         0.5103
     30 O4         -3.4958   -3.9847   -9.9129 O.2       1 <0>        -0.5408
     31 N4         -4.8757   -5.2642   -8.7380 N.am      1 <0>        -0.6852
     32 C21        -5.3376   -5.9526   -9.9459 C.3       1 <0>         0.0846
     33 H4         -4.5092   -6.0505  -10.6475 H         1 <0>         0.0841
     34 C22        -5.8576   -7.3425   -9.5735 C.3       1 <0>        -0.0770
     35 C23        -4.7205   -8.1799   -9.0475 C.ar      1 <0>        -0.0715
     36 C24        -3.9651   -8.9432   -9.9184 C.ar      1 <0>        -0.0991
     37 C25        -2.9225   -9.7121   -9.4387 C.ar      1 <0>        -0.1402
     38 C26        -2.6334   -9.7176   -8.0818 C.ar      1 <0>         0.0866
     39 C27        -3.3925   -8.9506   -7.2101 C.ar      1 <0>        -0.1424
     40 C28        -4.4308   -8.1794   -7.6955 C.ar      1 <0>        -0.1031
     41 O5         -1.6085  -10.4736   -7.6074 O.3       1 <0>        -0.5017
     42 C29        -6.4458   -5.1562  -10.5852 C.2       1 <0>         0.4914
     43 O6         -6.8156   -4.1106  -10.0788 O.co2     1 <0>        -0.6826
     44 O7         -6.9726   -5.5576  -11.6089 O.co2     1 <0>        -0.6919
     45 N5          2.2695   -1.8211    0.5101 N.4       1 <0>        -0.6196
     46 H5          2.3963    0.7239   -0.3480 H         1 <0>         0.0901
     47 H6          0.7248    0.8199   -0.9522 H         1 <0>         0.1124
     48 H7          1.0307    0.5500    0.7803 H         1 <0>         0.0993
     49 H8          0.4144   -0.4244   -2.7901 H         1 <0>         0.4190
     50 H9          2.0979   -2.2588   -4.3160 H         1 <0>         0.1203
     51 H10         2.3412    0.7676   -4.6298 H         1 <0>         0.0690
     52 H11         3.5923   -0.3111   -3.9670 H         1 <0>         0.0726
     53 H12         3.1117   -0.4496   -5.6752 H         1 <0>         0.0885
     54 H13         2.5228   -0.6786   -7.4421 H         1 <0>         0.0808
     55 H14         2.6682   -2.2227   -6.5478 H         1 <0>         0.0798
     56 H15         2.4773   -2.2682   -9.2455 H         1 <0>         0.0939
     57 H16         1.5421   -3.4615   -8.2832 H         1 <0>         0.0816
     58 H17         0.5800   -0.8050   -9.4870 H         1 <0>         0.0938
     59 H18        -0.2287   -2.4059   -9.5326 H         1 <0>         0.0973
     60 H19        -2.6447   -1.9643   -8.6843 H         1 <0>         0.4081
     61 H20        -5.0924   -2.1619   -7.5809 H         1 <0>         0.0889
     62 H21        -5.4122   -3.6457   -6.6513 H         1 <0>         0.0904
     63 H22        -4.5065   -3.9284   -4.4120 H         1 <0>         0.1150
     64 H23        -3.7382   -2.8075   -2.3585 H         1 <0>         0.1087
     65 H24        -2.9892   -0.4633   -2.4420 H         1 <0>         0.1039
     66 H25        -3.0077    0.7598   -4.5790 H         1 <0>         0.1090
     67 H26        -3.7681   -0.3637   -6.6339 H         1 <0>         0.1116
     68 H27        -5.2375   -5.5090   -7.8719 H         1 <0>         0.3882
     69 H28        -6.6257   -7.2494   -8.8058 H         1 <0>         0.0733
     70 H29        -6.2824   -7.8200  -10.4565 H         1 <0>         0.0970
     71 H30        -4.1905   -8.9385  -10.9746 H         1 <0>         0.1295
     72 H31        -2.3331  -10.3087  -10.1193 H         1 <0>         0.1255
     73 H32        -3.1695   -8.9532   -6.1534 H         1 <0>         0.1225
     74 H33        -5.0193   -7.5786   -7.0179 H         1 <0>         0.1215
     75 H34        -0.7581  -10.0138   -7.5853 H         1 <0>         0.3845
     76 H35         1.9429   -1.6258    1.4446 H         1 <0>         0.4424
     77 H36         2.2683   -2.8181    0.3550 H         1 <0>         0.4433
     78 H37         3.2071   -1.4647    0.4001 H         1 <0>         0.4392
@<TRIPOS>BOND
     1    1    2 1
     2    1   46 1
     3    1   47 1
     4    1   48 1
     5    2    3 1
     6    2    4 1
     7    2   45 1
     8    4    5 2
     9    4    6 am
    10    6    7 1
    11    6   49 1
    12    7    8 1
    13    7    9 1
    14    7   50 1
    15    8   51 1
    16    8   52 1
    17    8   53 1
    18    9   10 2
    19    9   11 am
    20   11   15 1
    21   11   12 1
    22   12   13 1
    23   12   54 1
    24   12   55 1
    25   13   14 1
    26   13   56 1
    27   13   57 1
    28   14   15 1
    29   14   58 1
    30   14   59 1
    31   15   16 1
    32   15   17 1
    33   17   18 2
    34   17   19 am
    35   19   20 1
    36   19   60 1
    37   20   21 1
    38   20   22 1
    39   20   29 1
    40   22   23 1
    41   22   61 1
    42   22   62 1
    43   23   28 ar
    44   23   24 ar
    45   24   25 ar
    46   24   63 1
    47   25   26 ar
    48   25   64 1
    49   26   27 ar
    50   26   65 1
    51   27   28 ar
    52   27   66 1
    53   28   67 1
    54   29   30 2
    55   29   31 am
    56   31   32 1
    57   31   68 1
    58   32   33 1
    59   32   34 1
    60   32   42 1
    61   34   35 1
    62   34   69 1
    63   34   70 1
    64   35   40 ar
    65   35   36 ar
    66   36   37 ar
    67   36   71 1
    68   37   38 ar
    69   37   72 1
    70   38   39 ar
    71   38   41 1
    72   39   40 ar
    73   39   73 1
    74   40   74 1
    75   41   75 1
    76   42   43 2
    77   42   44 1
    78   45   76 1
    79   45   77 1
    80   45   78 1
@<TRIPOS>MOLECULE
CHEMBL188934__1
   77    79     0     0     0
SMALL
USER_CHARGES

@<TRIPOS>ATOM
      1 C1          1.3836    0.3389   -0.2291 C.3       1 <0>        -0.1853
      2 C2          1.3818   -1.1729   -0.4644 C.3       1 <0>         0.0734
      3 H1          0.3690   -1.5579   -0.3455 H         1 <0>         0.1092
      4 C3          1.8696   -1.4647   -1.8601 C.2       1 <0>         0.5219
      5 O1          2.8593   -2.1456   -2.0266 O.2       1 <0>        -0.5269
      6 N1          1.2060   -0.9690   -2.9233 N.am      1 <0>        -0.7097
      7 C4          1.6802   -1.2526   -4.2800 C.3       1 <0>         0.1341
      8 C5          2.7589   -0.2385   -4.6657 C.3       1 <0>        -0.1669
      9 C6          0.5279   -1.1523   -5.2461 C.2       1 <0>         0.5325
     10 O2         -0.5802   -0.8715   -4.8412 O.2       1 <0>        -0.5036
     11 N2          0.7289   -1.3746   -6.5602 N.am      1 <0>        -0.5967
     12 C7          2.0338   -1.6222   -7.1999 C.3       1 <0>         0.0965
     13 C8          1.6987   -2.4038   -8.4947 C.3       1 <0>        -0.1334
     14 C9          0.3761   -1.7231   -8.9360 C.3       1 <0>        -0.1264
     15 C10        -0.3175   -1.4166   -7.5920 C.3       1 <0>         0.1250
     16 H2         -0.8213   -0.4517   -7.6486 H         1 <0>         0.0994
     17 C11        -1.3138   -2.4998   -7.2678 C.2       1 <0>         0.5193
     18 O3         -1.0726   -3.3031   -6.3917 O.2       1 <0>        -0.5243
     19 N3         -2.4728   -2.5760   -7.9514 N.am      1 <0>        -0.7007
     20 C12        -3.4730   -3.5827   -7.5875 C.3       1 <0>         0.1375
     21 H3         -3.0284   -4.3064   -6.9044 H         1 <0>         0.1167
     22 C13        -4.6595   -2.8992   -6.9048 C.3       1 <0>        -0.0866
     23 C14        -4.1891   -2.2133   -5.6481 C.ar      1 <0>        -0.0697
     24 C15        -4.1778   -2.9002   -4.4486 C.ar      1 <0>        -0.1136
     25 C16        -3.7463   -2.2711   -3.2958 C.ar      1 <0>        -0.1170
     26 C17        -3.3256   -0.9551   -3.3427 C.ar      1 <0>        -0.1135
     27 C18        -3.3360   -0.2685   -4.5424 C.ar      1 <0>        -0.0855
     28 C19        -3.7635   -0.8990   -5.6960 C.ar      1 <0>        -0.1065
     29 C20        -3.9481   -4.2908   -8.8301 C.2       1 <0>         0.5124
     30 O4         -3.4958   -3.9847   -9.9129 O.2       1 <0>        -0.5427
     31 N4         -4.8757   -5.2642   -8.7380 N.am      1 <0>        -0.6871
     32 C21        -5.3376   -5.9526   -9.9459 C.3       1 <0>         0.0849
     33 H4         -4.5092   -6.0505  -10.6475 H         1 <0>         0.0833
     34 C22        -5.8576   -7.3425   -9.5735 C.3       1 <0>        -0.0759
     35 C23        -4.7205   -8.1799   -9.0475 C.ar      1 <0>        -0.0725
     36 C24        -3.9651   -8.9432   -9.9184 C.ar      1 <0>        -0.1004
     37 C25        -2.9225   -9.7121   -9.4387 C.ar      1 <0>        -0.1415
     38 C26        -2.6334   -9.7176   -8.0818 C.ar      1 <0>         0.0874
     39 C27        -3.3925   -8.9506   -7.2101 C.ar      1 <0>        -0.1410
     40 C28        -4.4308   -8.1794   -7.6955 C.ar      1 <0>        -0.1018
     41 O5         -1.6085  -10.4736   -7.6074 O.3       1 <0>        -0.5026
     42 C29        -6.4458   -5.1562  -10.5852 C.2       1 <0>         0.4918
     43 O6         -6.8156   -4.1106  -10.0788 O.co2     1 <0>        -0.6814
     44 O7         -6.9726   -5.5576  -11.6089 O.co2     1 <0>        -0.6957
     45 N5          2.2695   -1.8211    0.5101 N.3       1 <0>        -0.8269
     46 H5          2.3963    0.7239   -0.3480 H         1 <0>         0.0607
     47 H6          0.7248    0.8199   -0.9522 H         1 <0>         0.0682
     48 H7          1.0307    0.5500    0.7803 H         1 <0>         0.0687
     49 H8          0.4144   -0.4244   -2.7901 H         1 <0>         0.4087
     50 H9          2.0979   -2.2588   -4.3160 H         1 <0>         0.1115
     51 H10         2.3412    0.7676   -4.6298 H         1 <0>         0.0624
     52 H11         3.5923   -0.3111   -3.9670 H         1 <0>         0.0715
     53 H12         3.1117   -0.4496   -5.6752 H         1 <0>         0.0777
     54 H13         2.5228   -0.6786   -7.4421 H         1 <0>         0.0772
     55 H14         2.6682   -2.2227   -6.5478 H         1 <0>         0.0809
     56 H15         2.4773   -2.2682   -9.2455 H         1 <0>         0.0902
     57 H16         1.5421   -3.4615   -8.2832 H         1 <0>         0.0803
     58 H17         0.5800   -0.8050   -9.4870 H         1 <0>         0.0906
     59 H18        -0.2287   -2.4059   -9.5326 H         1 <0>         0.0939
     60 H19        -2.6447   -1.9643   -8.6843 H         1 <0>         0.4059
     61 H20        -5.0924   -2.1619   -7.5809 H         1 <0>         0.0859
     62 H21        -5.4122   -3.6457   -6.6513 H         1 <0>         0.0875
     63 H22        -4.5065   -3.9284   -4.4120 H         1 <0>         0.1133
     64 H23        -3.7382   -2.8075   -2.3585 H         1 <0>         0.1110
     65 H24        -2.9892   -0.4633   -2.4420 H         1 <0>         0.1079
     66 H25        -3.0077    0.7598   -4.5790 H         1 <0>         0.1085
     67 H26        -3.7681   -0.3637   -6.6339 H         1 <0>         0.1092
     68 H27        -5.2375   -5.5090   -7.8719 H         1 <0>         0.3886
     69 H28        -6.6257   -7.2494   -8.8058 H         1 <0>         0.0727
     70 H29        -6.2824   -7.8200  -10.4565 H         1 <0>         0.0954
     71 H30        -4.1905   -8.9385  -10.9746 H         1 <0>         0.1282
     72 H31        -2.3331  -10.3087  -10.1193 H         1 <0>         0.1244
     73 H32        -3.1695   -8.9532   -6.1534 H         1 <0>         0.1242
     74 H33        -5.0193   -7.5786   -7.0179 H         1 <0>         0.1223
     75 H34        -0.7581  -10.0138   -7.5853 H         1 <0>         0.3859
     76 H35         3.2262   -1.5290    0.3780 H         1 <0>         0.3491
     77 H36         1.9634   -1.6403    1.4544 H         1 <0>         0.3480
@<TRIPOS>BOND
     1    1    2 1
     2    1   46 1
     3    1   47 1
     4    1   48 1
     5    2    3 1
     6    2    4 1
     7    2   45 1
     8    4    5 2
     9    4    6 am
    10    6    7 1
    11    6   49 1
    12    7    8 1
    13    7    9 1
    14    7   50 1
    15    8   51 1
    16    8   52 1
    17    8   53 1
    18    9   10 2
    19    9   11 am
    20   11   15 1
    21   11   12 1
    22   12   13 1
    23   12   54 1
    24   12   55 1
    25   13   14 1
    26   13   56 1
    27   13   57 1
    28   14   15 1
    29   14   58 1
    30   14   59 1
    31   15   16 1
    32   15   17 1
    33   17   18 2
    34   17   19 am
    35   19   20 1
    36   19   60 1
    37   20   21 1
    38   20   22 1
    39   20   29 1
    40   22   23 1
    41   22   61 1
    42   22   62 1
    43   23   28 ar
    44   23   24 ar
    45   24   25 ar
    46   24   63 1
    47   25   26 ar
    48   25   64 1
    49   26   27 ar
    50   26   65 1
    51   27   28 ar
    52   27   66 1
    53   28   67 1
    54   29   30 2
    55   29   31 am
    56   31   32 1
    57   31   68 1
    58   32   33 1
    59   32   34 1
    60   32   42 1
    61   34   35 1
    62   34   69 1
    63   34   70 1
    64   35   40 ar
    65   35   36 ar
    66   36   37 ar
    67   36   71 1
    68   37   38 ar
    69   37   72 1
    70   38   39 ar
    71   38   41 1
    72   39   40 ar
    73   39   73 1
    74   40   74 1
    75   41   75 1
    76   42   43 2
    77   42   44 1
    78   45   76 1
    79   45   77 1
@<TRIPOS>MOLECULE
CHEMBL188934__2
   78    80     0     0     0
SMALL
USER_CHARGES

@<TRIPOS>ATOM
      1 C1          2.4347    0.8520   -0.6940 C.3       1 <0>        -0.1841
      2 C2          2.2125   -0.6615   -0.7247 C.3       1 <0>         0.0095
      3 H1          1.2120   -0.8893   -0.3569 H         1 <0>         0.1704
      4 C3          2.3536   -1.1613   -2.1394 C.2       1 <0>         0.5042
      5 O1          3.2015   -1.9852   -2.4097 O.2       1 <0>        -0.5310
      6 N1          1.5374   -0.6928   -3.1042 N.am      1 <0>        -0.6802
      7 C4          1.6746   -1.1787   -4.4794 C.3       1 <0>         0.1307
      8 C5          0.8815   -2.4768   -4.6431 C.3       1 <0>        -0.1615
      9 C6          1.1425   -0.1412   -5.4342 C.2       1 <0>         0.5258
     10 O2          0.4034    0.7318   -5.0309 O.2       1 <0>        -0.4980
     11 N2          1.4880   -0.1834   -6.7362 N.am      1 <0>        -0.5920
     12 C7          2.2761   -1.2489   -7.3820 C.3       1 <0>         0.0924
     13 C8          1.8788   -1.1848   -8.8779 C.3       1 <0>        -0.1323
     14 C9          1.7232    0.3438   -9.0936 C.3       1 <0>        -0.1283
     15 C10         1.1361    0.8224   -7.7492 C.3       1 <0>         0.1240
     16 H2          1.5683    1.7863   -7.4803 H         1 <0>         0.1009
     17 C11        -0.3625    0.9410   -7.8546 C.2       1 <0>         0.5196
     18 O3         -1.0754    0.1313   -7.3004 O.2       1 <0>        -0.5240
     19 N3         -0.9107    1.9468   -8.5648 N.am      1 <0>        -0.6999
     20 C12        -2.3660    2.1108   -8.5995 C.3       1 <0>         0.1385
     21 H3         -2.8415    1.2272   -8.1736 H         1 <0>         0.1177
     22 C13        -2.7599    3.3445   -7.7847 C.3       1 <0>        -0.0902
     23 C14        -2.4418    3.1087   -6.3307 C.ar      1 <0>        -0.0637
     24 C15        -3.3783    2.5141   -5.5059 C.ar      1 <0>        -0.1116
     25 C16        -3.0866    2.2979   -4.1721 C.ar      1 <0>        -0.1167
     26 C17        -1.8581    2.6758   -3.6632 C.ar      1 <0>        -0.1231
     27 C18        -0.9212    3.2695   -4.4882 C.ar      1 <0>        -0.0914
     28 C19        -1.2114    3.4819   -5.8230 C.ar      1 <0>        -0.1028
     29 C20        -2.8180    2.2859  -10.0264 C.2       1 <0>         0.5103
     30 O4         -2.0044    2.2749  -10.9258 O.2       1 <0>        -0.5418
     31 N4         -4.1262    2.4548  -10.3031 N.am      1 <0>        -0.6853
     32 C21        -4.5655    2.6250  -11.6902 C.3       1 <0>         0.0847
     33 H4         -3.9412    2.0183  -12.3461 H         1 <0>         0.0840
     34 C22        -6.0241    2.1821  -11.8212 C.3       1 <0>        -0.0769
     35 C23        -6.1264    0.7034  -11.5493 C.ar      1 <0>        -0.0720
     36 C24        -5.9945   -0.2000  -12.5876 C.ar      1 <0>        -0.0994
     37 C25        -6.0884   -1.5561  -12.3409 C.ar      1 <0>        -0.1404
     38 C26        -6.3147   -2.0111  -11.0501 C.ar      1 <0>         0.0869
     39 C27        -6.4463   -1.1026  -10.0099 C.ar      1 <0>        -0.1420
     40 C28        -6.3465    0.2522  -10.2609 C.ar      1 <0>        -0.1028
     41 O5         -6.4079   -3.3445  -10.8049 O.3       1 <0>        -0.5016
     42 C29        -4.4438    4.0753  -12.0813 C.2       1 <0>         0.4915
     43 O6         -4.0286    4.8911  -11.2759 O.co2     1 <0>        -0.6829
     44 O7         -4.7606    4.4329  -13.2030 O.co2     1 <0>        -0.6922
     45 N5          3.2099   -1.3203    0.1292 N.4       1 <0>        -0.6196
     46 H5          3.4352    1.0798   -1.0618 H         1 <0>         0.0902
     47 H6          1.6946    1.3408   -1.3276 H         1 <0>         0.1144
     48 H7          2.3327    1.2135    0.3292 H         1 <0>         0.0996
     49 H8          0.8593   -0.0338   -2.8880 H         1 <0>         0.4207
     50 H9          2.7264   -1.3658   -4.6955 H         1 <0>         0.1156
     51 H10        -0.1566   -2.3069   -4.3574 H         1 <0>         0.0731
     52 H11         0.9238   -2.7997   -5.6834 H         1 <0>         0.0835
     53 H12         1.3123   -3.2486   -4.0053 H         1 <0>         0.0725
     54 H13         3.3425   -1.0566   -7.2640 H         1 <0>         0.0769
     55 H14         2.0162   -2.2205   -6.9618 H         1 <0>         0.0812
     56 H15         2.6692   -1.5900   -9.5097 H         1 <0>         0.0936
     57 H16         0.9359   -1.7023   -9.0543 H         1 <0>         0.0823
     58 H17         2.6915    0.8072   -9.2825 H         1 <0>         0.0927
     59 H18         1.0303    0.5496   -9.9095 H         1 <0>         0.0978
     60 H19        -0.3415    2.5622   -9.0529 H         1 <0>         0.4070
     61 H20        -2.2021    4.2097   -8.1430 H         1 <0>         0.0872
     62 H21        -3.8282    3.5287   -7.8977 H         1 <0>         0.0916
     63 H22        -4.3381    2.2189   -5.9035 H         1 <0>         0.1166
     64 H23        -3.8185    1.8340   -3.5275 H         1 <0>         0.1122
     65 H24        -1.6304    2.5075   -2.6210 H         1 <0>         0.1051
     66 H25         0.0384    3.5651   -4.0905 H         1 <0>         0.1060
     67 H26        -0.4781    3.9424   -6.4684 H         1 <0>         0.1099
     68 H27        -4.7768    2.4636   -9.5837 H         1 <0>         0.3884
     69 H28        -6.6353    2.7270  -11.1018 H         1 <0>         0.0732
     70 H29        -6.3780    2.3912  -12.8308 H         1 <0>         0.0968
     71 H30        -5.8183    0.1547  -13.5923 H         1 <0>         0.1292
     72 H31        -5.9859   -2.2613  -13.1524 H         1 <0>         0.1253
     73 H32        -6.6226   -1.4543   -9.0041 H         1 <0>         0.1231
     74 H33        -6.4444    0.9597   -9.4509 H         1 <0>         0.1216
     75 H34        -5.5634   -3.7655  -10.5935 H         1 <0>         0.3847
     76 H35         3.1155   -0.9856    1.0763 H         1 <0>         0.4425
     77 H36         3.0634   -2.3184    0.1089 H         1 <0>         0.4424
     78 H37         4.1360   -1.1094   -0.2113 H         1 <0>         0.4398
@<TRIPOS>BOND
     1    1    2 1
     2    1   46 1
     3    1   47 1
     4    1   48 1
     5    2    3 1
     6    2    4 1
     7    2   45 1
     8    4    5 2
     9    4    6 am
    10    6    7 1
    11    6   49 1
    12    7    8 1
    13    7    9 1
    14    7   50 1
    15    8   51 1
    16    8   52 1
    17    8   53 1
    18    9   10 2
    19    9   11 am
    20   11   15 1
    21   11   12 1
    22   12   13 1
    23   12   54 1
    24   12   55 1
    25   13   14 1
    26   13   56 1
    27   13   57 1
    28   14   15 1
    29   14   58 1
    30   14   59 1
    31   15   16 1
    32   15   17 1
    33   17   18 2
    34   17   19 am
    35   19   20 1
    36   19   60 1
    37   20   21 1
    38   20   22 1
    39   20   29 1
    40   22   23 1
    41   22   61 1
    42   22   62 1
    43   23   28 ar
    44   23   24 ar
    45   24   25 ar
    46   24   63 1
    47   25   26 ar
    48   25   64 1
    49   26   27 ar
    50   26   65 1
    51   27   28 ar
    52   27   66 1
    53   28   67 1
    54   29   30 2
    55   29   31 am
    56   31   32 1
    57   31   68 1
    58   32   33 1
    59   32   34 1
    60   32   42 1
    61   34   35 1
    62   34   69 1
    63   34   70 1
    64   35   40 ar
    65   35   36 ar
    66   36   37 ar
    67   36   71 1
    68   37   38 ar
    69   37   72 1
    70   38   39 ar
    71   38   41 1
    72   39   40 ar
    73   39   73 1
    74   40   74 1
    75   41   75 1
    76   42   43 2
    77   42   44 1
    78   45   76 1
    79   45   77 1
    80   45   78 1
@<TRIPOS>MOLECULE
CHEMBL188934__3
   77    79     0     0     0
SMALL
USER_CHARGES

@<TRIPOS>ATOM
      1 C1          2.4347    0.8520   -0.6940 C.3       1 <0>        -0.1866
      2 C2          2.2125   -0.6615   -0.7247 C.3       1 <0>         0.0734
      3 H1          1.2120   -0.8893   -0.3569 H         1 <0>         0.1085
      4 C3          2.3536   -1.1613   -2.1394 C.2       1 <0>         0.5210
      5 O1          3.2015   -1.9852   -2.4097 O.2       1 <0>        -0.5273
      6 N1          1.5374   -0.6928   -3.1042 N.am      1 <0>        -0.7126
      7 C4          1.6746   -1.1787   -4.4794 C.3       1 <0>         0.1355
      8 C5          0.8815   -2.4768   -4.6431 C.3       1 <0>        -0.1577
      9 C6          1.1425   -0.1412   -5.4342 C.2       1 <0>         0.5292
     10 O2          0.4034    0.7318   -5.0309 O.2       1 <0>        -0.4997
     11 N2          1.4880   -0.1834   -6.7362 N.am      1 <0>        -0.5973
     12 C7          2.2761   -1.2489   -7.3820 C.3       1 <0>         0.0939
     13 C8          1.8788   -1.1848   -8.8779 C.3       1 <0>        -0.1314
     14 C9          1.7232    0.3438   -9.0936 C.3       1 <0>        -0.1267
     15 C10         1.1361    0.8224   -7.7492 C.3       1 <0>         0.1242
     16 H2          1.5683    1.7863   -7.4803 H         1 <0>         0.0978
     17 C11        -0.3625    0.9410   -7.8546 C.2       1 <0>         0.5194
     18 O3         -1.0754    0.1313   -7.3004 O.2       1 <0>        -0.5199
     19 N3         -0.9107    1.9468   -8.5648 N.am      1 <0>        -0.7026
     20 C12        -2.3660    2.1108   -8.5995 C.3       1 <0>         0.1381
     21 H3         -2.8415    1.2272   -8.1736 H         1 <0>         0.1174
     22 C13        -2.7599    3.3445   -7.7847 C.3       1 <0>        -0.0868
     23 C14        -2.4418    3.1087   -6.3307 C.ar      1 <0>        -0.0691
     24 C15        -3.3783    2.5141   -5.5059 C.ar      1 <0>        -0.1139
     25 C16        -3.0866    2.2979   -4.1721 C.ar      1 <0>        -0.1168
     26 C17        -1.8581    2.6758   -3.6632 C.ar      1 <0>        -0.1176
     27 C18        -0.9212    3.2695   -4.4882 C.ar      1 <0>        -0.0881
     28 C19        -1.2114    3.4819   -5.8230 C.ar      1 <0>        -0.1029
     29 C20        -2.8180    2.2859  -10.0264 C.2       1 <0>         0.5120
     30 O4         -2.0044    2.2749  -10.9258 O.2       1 <0>        -0.5426
     31 N4         -4.1262    2.4548  -10.3031 N.am      1 <0>        -0.6873
     32 C21        -4.5655    2.6250  -11.6902 C.3       1 <0>         0.0850
     33 H4         -3.9412    2.0183  -12.3461 H         1 <0>         0.0832
     34 C22        -6.0241    2.1821  -11.8212 C.3       1 <0>        -0.0761
     35 C23        -6.1264    0.7034  -11.5493 C.ar      1 <0>        -0.0723
     36 C24        -5.9945   -0.2000  -12.5876 C.ar      1 <0>        -0.1004
     37 C25        -6.0884   -1.5561  -12.3409 C.ar      1 <0>        -0.1414
     38 C26        -6.3147   -2.0111  -11.0501 C.ar      1 <0>         0.0871
     39 C27        -6.4463   -1.1026  -10.0099 C.ar      1 <0>        -0.1409
     40 C28        -6.3465    0.2522  -10.2609 C.ar      1 <0>        -0.1018
     41 O5         -6.4079   -3.3445  -10.8049 O.3       1 <0>        -0.5026
     42 C29        -4.4438    4.0753  -12.0813 C.2       1 <0>         0.4917
     43 O6         -4.0286    4.8911  -11.2759 O.co2     1 <0>        -0.6815
     44 O7         -4.7606    4.4329  -13.2030 O.co2     1 <0>        -0.6956
     45 N5          3.2099   -1.3203    0.1292 N.3       1 <0>        -0.8274
     46 H5          3.4352    1.0798   -1.0618 H         1 <0>         0.0608
     47 H6          1.6946    1.3408   -1.3276 H         1 <0>         0.0703
     48 H7          2.3327    1.2135    0.3292 H         1 <0>         0.0689
     49 H8          0.8593   -0.0338   -2.8880 H         1 <0>         0.4105
     50 H9          2.7264   -1.3658   -4.6955 H         1 <0>         0.1057
     51 H10        -0.1566   -2.3069   -4.3574 H         1 <0>         0.0673
     52 H11         0.9238   -2.7997   -5.6834 H         1 <0>         0.0719
     53 H12         1.3123   -3.2486   -4.0053 H         1 <0>         0.0727
     54 H13         3.3425   -1.0566   -7.2640 H         1 <0>         0.0747
     55 H14         2.0162   -2.2205   -6.9618 H         1 <0>         0.0821
     56 H15         2.6692   -1.5900   -9.5097 H         1 <0>         0.0903
     57 H16         0.9359   -1.7023   -9.0543 H         1 <0>         0.0801
     58 H17         2.6915    0.8072   -9.2825 H         1 <0>         0.0903
     59 H18         1.0303    0.5496   -9.9095 H         1 <0>         0.0942
     60 H19        -0.3415    2.5622   -9.0529 H         1 <0>         0.4054
     61 H20        -2.2021    4.2097   -8.1430 H         1 <0>         0.0849
     62 H21        -3.8282    3.5287   -7.8977 H         1 <0>         0.0886
     63 H22        -4.3381    2.2189   -5.9035 H         1 <0>         0.1142
     64 H23        -3.8185    1.8340   -3.5275 H         1 <0>         0.1119
     65 H24        -1.6304    2.5075   -2.6210 H         1 <0>         0.1088
     66 H25         0.0384    3.5651   -4.0905 H         1 <0>         0.1080
     67 H26        -0.4781    3.9424   -6.4684 H         1 <0>         0.1086
     68 H27        -4.7768    2.4636   -9.5837 H         1 <0>         0.3885
     69 H28        -6.6353    2.7270  -11.1018 H         1 <0>         0.0727
     70 H29        -6.3780    2.3912  -12.8308 H         1 <0>         0.0953
     71 H30        -5.8183    0.1547  -13.5923 H         1 <0>         0.1282
     72 H31        -5.9859   -2.2613  -13.1524 H         1 <0>         0.1244
     73 H32        -6.6226   -1.4543   -9.0041 H         1 <0>         0.1240
     74 H33        -6.4444    0.9597   -9.4509 H         1 <0>         0.1223
     75 H34        -5.5634   -3.7655  -10.5935 H         1 <0>         0.3857
     76 H35         4.1427   -1.1776   -0.2283 H         1 <0>         0.3496
     77 H36         3.1358   -1.0017    1.0837 H         1 <0>         0.3480
@<TRIPOS>BOND
     1    1    2 1
     2    1   46 1
     3    1   47 1
     4    1   48 1
     5    2    3 1
     6    2    4 1
     7    2   45 1
     8    4    5 2
     9    4    6 am
    10    6    7 1
    11    6   49 1
    12    7    8 1
    13    7    9 1
    14    7   50 1
    15    8   51 1
    16    8   52 1
    17    8   53 1
    18    9   10 2
    19    9   11 am
    20   11   15 1
    21   11   12 1
    22   12   13 1
    23   12   54 1
    24   12   55 1
    25   13   14 1
    26   13   56 1
    27   13   57 1
    28   14   15 1
    29   14   58 1
    30   14   59 1
    31   15   16 1
    32   15   17 1
    33   17   18 2
    34   17   19 am
    35   19   20 1
    36   19   60 1
    37   20   21 1
    38   20   22 1
    39   20   29 1
    40   22   23 1
    41   22   61 1
    42   22   62 1
    43   23   28 ar
    44   23   24 ar
    45   24   25 ar
    46   24   63 1
    47   25   26 ar
    48   25   64 1
    49   26   27 ar
    50   26   65 1
    51   27   28 ar
    52   27   66 1
    53   28   67 1
    54   29   30 2
    55   29   31 am
    56   31   32 1
    57   31   68 1
    58   32   33 1
    59   32   34 1
    60   32   42 1
    61   34   35 1
    62   34   69 1
    63   34   70 1
    64   35   40 ar
    65   35   36 ar
    66   36   37 ar
    67   36   71 1
    68   37   38 ar
    69   37   72 1
    70   38   39 ar
    71   38   41 1
    72   39   40 ar
    73   39   73 1
    74   40   74 1
    75   41   75 1
    76   42   43 2
    77   42   44 1
    78   45   76 1
    79   45   77 1
@<TRIPOS>MOLECULE
CHEMBL361542
   61    62     0     0     0
SMALL
USER_CHARGES

@<TRIPOS>ATOM
      1 C1          1.6664   -1.2680   -2.9165 C.3       1 <0>        -0.1726
      2 C2          1.3055   -2.3911   -1.9422 C.3       1 <0>        -0.1442
      3 C3          1.6965   -1.9791   -0.5215 C.3       1 <0>         0.0096
      4 H1          1.2283   -1.0253   -0.2780 H         1 <0>         0.1667
      5 C4          1.2308   -3.0304    0.4526 C.2       1 <0>         0.5048
      6 O1          2.0145   -3.8524    0.8782 O.2       1 <0>        -0.5172
      7 N1         -0.0565   -3.0572    0.8508 N.am      1 <0>        -0.6858
      8 C5         -0.5092   -4.0793    1.7977 C.3       1 <0>         0.1363
      9 H2          0.0253   -5.0106    1.6102 H         1 <0>         0.1156
     10 C6         -0.2299   -3.6099    3.2269 C.3       1 <0>        -0.0957
     11 C7         -0.5833   -4.7283    4.2093 C.3       1 <0>        -0.1586
     12 C8          1.2522   -3.2571    3.3674 C.3       1 <0>        -0.1380
     13 C9         -1.9889   -4.3054    1.6234 C.2       1 <0>         0.5388
     14 O2         -2.7150   -3.3765    1.3391 O.2       1 <0>        -0.5181
     15 N2         -2.5054   -5.5400    1.7835 N.am      1 <0>        -0.5938
     16 C10        -1.7319   -6.7680    2.0422 C.3       1 <0>         0.0853
     17 C11        -2.7289   -7.7244    2.7429 C.3       1 <0>        -0.1336
     18 C12        -4.0491   -7.4008    1.9948 C.3       1 <0>        -0.1262
     19 C13        -3.9340   -5.8840    1.7353 C.3       1 <0>         0.1189
     20 H3         -4.3396   -5.6463    0.7519 H         1 <0>         0.1064
     21 C14        -4.6809   -5.1213    2.7990 C.2       1 <0>         0.5081
     22 O3         -4.0845   -4.3609    3.5317 O.2       1 <0>        -0.5197
     23 N3         -6.0118   -5.2843    2.9361 N.am      1 <0>        -0.7233
     24 C15        -6.7379   -4.5429    3.9701 C.3       1 <0>         0.1653
     25 C16        -8.2003   -4.9023    3.9125 C.ar      1 <0>        -0.1158
     26 C17        -9.0591   -4.1769    3.1081 C.ar      1 <0>        -0.1007
     27 C18       -10.4006   -4.5065    3.0552 C.ar      1 <0>        -0.1203
     28 C19       -10.8831   -5.5618    3.8064 C.ar      1 <0>        -0.1080
     29 C20       -10.0241   -6.2878    4.6102 C.ar      1 <0>        -0.1201
     30 C21        -8.6819   -5.9609    4.6597 C.ar      1 <0>        -0.1006
     31 N4          3.1567   -1.8440   -0.4352 N.4       1 <0>        -0.6209
     32 H4          2.7395   -1.0815   -2.8746 H         1 <0>         0.0564
     33 H5          1.3878   -1.5616   -3.9286 H         1 <0>         0.0901
     34 H6          1.1289   -0.3608   -2.6404 H         1 <0>         0.0770
     35 H7          0.2324   -2.5776   -1.9840 H         1 <0>         0.1168
     36 H8          1.8429   -3.2983   -2.2183 H         1 <0>         0.0990
     37 H9         -0.6833   -2.3998    0.5104 H         1 <0>         0.4185
     38 H10        -0.8351   -2.7300    3.4451 H         1 <0>         0.0852
     39 H11         0.0636   -5.5871    4.0301 H         1 <0>         0.0600
     40 H12        -0.4415   -4.3735    5.2301 H         1 <0>         0.0693
     41 H13        -1.6236   -5.0212    4.0676 H         1 <0>         0.0738
     42 H14         1.5040   -2.4603    2.6675 H         1 <0>         0.0375
     43 H15         1.4512   -2.9227    4.3855 H         1 <0>         0.0631
     44 H16         1.8574   -4.1370    3.1491 H         1 <0>         0.0708
     45 H17        -1.3848   -7.2023    1.1047 H         1 <0>         0.0796
     46 H18        -0.8876   -6.5536    2.6975 H         1 <0>         0.0879
     47 H19        -2.4412   -8.7654    2.5952 H         1 <0>         0.0968
     48 H20        -2.8139   -7.4911    3.8042 H         1 <0>         0.0825
     49 H21        -4.1061   -7.9530    1.0568 H         1 <0>         0.0950
     50 H22        -4.9121   -7.6176    2.6243 H         1 <0>         0.0923
     51 H23        -6.4888   -5.8926    2.3500 H         1 <0>         0.4024
     52 H24        -6.3386   -4.8016    4.9508 H         1 <0>         0.0770
     53 H25        -6.6198   -3.4727    3.8005 H         1 <0>         0.0766
     54 H26        -8.6821   -3.3524    2.5211 H         1 <0>         0.1230
     55 H27       -11.0717   -3.9393    2.4273 H         1 <0>         0.1259
     56 H28       -11.9313   -5.8189    3.7657 H         1 <0>         0.1259
     57 H29       -10.4012   -7.1121    5.1974 H         1 <0>         0.1263
     58 H30        -8.0101   -6.5304    5.2848 H         1 <0>         0.1235
     59 H31         3.4685   -1.1400   -1.0874 H         1 <0>         0.4416
     60 H32         3.4145   -1.5722    0.5017 H         1 <0>         0.4409
     61 H33         3.5900   -2.7269   -0.6606 H         1 <0>         0.4424
@<TRIPOS>BOND
     1    1    2 1
     2    1   32 1
     3    1   33 1
     4    1   34 1
     5    2    3 1
     6    2   35 1
     7    2   36 1
     8    3    4 1
     9    3    5 1
    10    3   31 1
    11    5    6 2
    12    5    7 am
    13    7    8 1
    14    7   37 1
    15    8    9 1
    16    8   10 1
    17    8   13 1
    18   10   11 1
    19   10   12 1
    20   10   38 1
    21   11   39 1
    22   11   40 1
    23   11   41 1
    24   12   42 1
    25   12   43 1
    26   12   44 1
    27   13   14 2
    28   13   15 am
    29   15   19 1
    30   15   16 1
    31   16   17 1
    32   16   45 1
    33   16   46 1
    34   17   18 1
    35   17   47 1
    36   17   48 1
    37   18   19 1
    38   18   49 1
    39   18   50 1
    40   19   20 1
    41   19   21 1
    42   21   22 2
    43   21   23 am
    44   23   24 1
    45   23   51 1
    46   24   25 1
    47   24   52 1
    48   24   53 1
    49   25   30 ar
    50   25   26 ar
    51   26   27 ar
    52   26   54 1
    53   27   28 ar
    54   27   55 1
    55   28   29 ar
    56   28   56 1
    57   29   30 ar
    58   29   57 1
    59   30   58 1
    60   31   59 1
    61   31   60 1
    62   31   61 1
@<TRIPOS>MOLECULE
CHEMBL369736
   61    62     0     0     0
SMALL
USER_CHARGES

@<TRIPOS>ATOM
      1 C1         -0.1585    2.3246    1.8923 C.3       1 <0>        -0.1808
      2 C2         -0.2925    0.9291    1.2793 C.3       1 <0>         0.0099
      3 H1         -0.0042    0.9646    0.2287 H         1 <0>         0.1657
      4 C3          0.6066   -0.0310    2.0148 C.2       1 <0>         0.5021
      5 O1          0.1445   -0.7681    2.8599 O.2       1 <0>        -0.5184
      6 N1          1.9240   -0.0706    1.7334 N.am      1 <0>        -0.6809
      7 C4          2.7980   -1.0040    2.4484 C.3       1 <0>         0.1369
      8 H2          2.4548   -1.1071    3.4778 H         1 <0>         0.1178
      9 C5          2.7591   -2.3692    1.7587 C.3       1 <0>        -0.1019
     10 C6          1.3556   -2.9650    1.8857 C.3       1 <0>        -0.1367
     11 C7          3.1108   -2.2032    0.2789 C.3       1 <0>        -0.1516
     12 C8          4.2098   -0.4770    2.4400 C.2       1 <0>         0.5356
     13 O2          4.5572    0.3128    1.5876 O.2       1 <0>        -0.5130
     14 N2          5.0864   -0.8832    3.3797 N.am      1 <0>        -0.5961
     15 C9          4.8359   -1.9199    4.3975 C.3       1 <0>         0.0911
     16 C10         6.2414   -2.4446    4.7834 C.3       1 <0>        -0.1336
     17 C11         7.0846   -1.1431    4.7325 C.3       1 <0>        -0.1263
     18 C12         6.4530   -0.3704    3.5555 C.3       1 <0>         0.1195
     19 H3          6.4226    0.6942    3.7873 H         1 <0>         0.1053
     20 C13         7.2528   -0.6017    2.2993 C.2       1 <0>         0.5071
     21 O3          6.7379   -1.1426    1.3436 O.2       1 <0>        -0.5150
     22 N3          8.5401   -0.2075    2.2378 N.am      1 <0>        -0.7306
     23 C14         9.3175   -0.4323    1.0166 C.3       1 <0>         0.1279
     24 C15        10.7372    0.1045    1.2098 C.3       1 <0>        -0.0905
     25 C16        11.5369   -0.1268   -0.0464 C.ar      1 <0>        -0.0876
     26 C17        12.2459   -1.3025   -0.2078 C.ar      1 <0>        -0.1138
     27 C18        12.9794   -1.5146   -1.3601 C.ar      1 <0>        -0.1171
     28 C19        13.0037   -0.5513   -2.3512 C.ar      1 <0>        -0.1185
     29 C20        12.2940    0.6240   -2.1902 C.ar      1 <0>        -0.1175
     30 C21        11.5569    0.8343   -1.0398 C.ar      1 <0>        -0.1141
     31 N4         -1.6859    0.4775    1.3897 N.4       1 <0>        -0.6208
     32 H4          0.8754    2.6597    1.8104 H         1 <0>         0.1125
     33 H5         -0.8088    3.0190    1.3603 H         1 <0>         0.1003
     34 H6         -0.4468    2.2891    2.9429 H         1 <0>         0.0914
     35 H7          2.2936    0.5189    1.0575 H         1 <0>         0.4198
     36 H8          3.4809   -3.0356    2.2311 H         1 <0>         0.0920
     37 H9          1.3280   -3.9375    1.3944 H         1 <0>         0.0616
     38 H10         1.1052   -3.0832    2.9399 H         1 <0>         0.0653
     39 H11         0.6339   -2.2986    1.4133 H         1 <0>         0.0453
     40 H12         4.1106   -1.7787    0.1885 H         1 <0>         0.0723
     41 H13         3.0831   -3.1757   -0.2124 H         1 <0>         0.0637
     42 H14         2.3890   -1.5368   -0.1934 H         1 <0>         0.0493
     43 H15         4.3410   -1.4864    5.2666 H         1 <0>         0.0807
     44 H16         4.2323   -2.7249    3.9785 H         1 <0>         0.0831
     45 H17         6.2379   -2.8689    5.7874 H         1 <0>         0.0971
     46 H18         6.6006   -3.1716    4.0550 H         1 <0>         0.0820
     47 H19         6.9866   -0.5836    5.6628 H         1 <0>         0.0952
     48 H20         8.1306   -1.3692    4.5255 H         1 <0>         0.0922
     49 H21         8.9519    0.2251    3.0022 H         1 <0>         0.4009
     50 H22         9.3588   -1.5005    0.8037 H         1 <0>         0.0699
     51 H23         8.8433    0.0862    0.1834 H         1 <0>         0.0696
     52 H24        10.6959    1.1727    1.4227 H         1 <0>         0.0800
     53 H25        11.2115   -0.4140    2.0430 H         1 <0>         0.0806
     54 H26        12.2270   -2.0551    0.5665 H         1 <0>         0.1218
     55 H27        13.5339   -2.4328   -1.4858 H         1 <0>         0.1241
     56 H28        13.5774   -0.7167   -3.2511 H         1 <0>         0.1237
     57 H29        12.3132    1.3768   -2.9644 H         1 <0>         0.1237
     58 H30        10.9995    1.7510   -0.9156 H         1 <0>         0.1212
     59 H31        -1.9528    0.4447    2.3622 H         1 <0>         0.4424
     60 H32        -2.2879    1.1203    0.8973 H         1 <0>         0.4439
     61 H33        -1.7743   -0.4428    0.9855 H         1 <0>         0.4404
@<TRIPOS>BOND
     1    1    2 1
     2    1   32 1
     3    1   33 1
     4    1   34 1
     5    2    3 1
     6    2    4 1
     7    2   31 1
     8    4    5 2
     9    4    6 am
    10    6    7 1
    11    6   35 1
    12    7    8 1
    13    7    9 1
    14    7   12 1
    15    9   10 1
    16    9   11 1
    17    9   36 1
    18   10   37 1
    19   10   38 1
    20   10   39 1
    21   11   40 1
    22   11   41 1
    23   11   42 1
    24   12   13 2
    25   12   14 am
    26   14   18 1
    27   14   15 1
    28   15   16 1
    29   15   43 1
    30   15   44 1
    31   16   17 1
    32   16   45 1
    33   16   46 1
    34   17   18 1
    35   17   47 1
    36   17   48 1
    37   18   19 1
    38   18   20 1
    39   20   21 2
    40   20   22 am
    41   22   23 1
    42   22   49 1
    43   23   24 1
    44   23   50 1
    45   23   51 1
    46   24   25 1
    47   24   52 1
    48   24   53 1
    49   25   30 ar
    50   25   26 ar
    51   26   27 ar
    52   26   54 1
    53   27   28 ar
    54   27   55 1
    55   28   29 ar
    56   28   56 1
    57   29   30 ar
    58   29   57 1
    59   30   58 1
    60   31   59 1
    61   31   60 1
    62   31   61 1
@<TRIPOS>MOLECULE
CHEMBL572609
   78    81     0     0     0
SMALL
USER_CHARGES

@<TRIPOS>ATOM
      1 C1         -0.0187    1.5258    0.0104 C.3       1 <0>        -0.1700
      2 C2          0.0021   -0.0041    0.0020 C.3       1 <0>        -0.1419
      3 C3         -1.4333   -0.5336    0.0129 C.3       1 <0>         0.0107
      4 H1         -1.9862   -0.1019   -0.8214 H         1 <0>         0.1648
      5 C4         -1.4159   -2.0348   -0.1192 C.2       1 <0>         0.5028
      6 O1         -1.5501   -2.7316    0.8643 O.2       1 <0>        -0.4952
      7 N1         -1.2512   -2.6028   -1.3302 N.am      1 <0>        -0.6905
      8 C5         -1.2344   -4.0592   -1.4584 C.3       1 <0>         0.1515
      9 H2         -1.9415   -4.4722   -0.7218 H         1 <0>         0.1284
     10 C6         -1.6918   -4.4868   -2.8490 C.3       1 <0>        -0.0998
     11 H3         -1.3116   -5.4883   -3.0665 H         1 <0>         0.1130
     12 C7         -1.2059   -3.5091   -3.9135 C.3       1 <0>        -0.1238
     13 C8          0.3115   -3.3677   -3.8835 C.3       1 <0>        -0.1372
     14 C9          0.9536   -4.7013   -3.5066 C.3       1 <0>         0.1266
     15 H4          0.3468   -5.5249   -3.8879 H         1 <0>         0.0915
     16 C10         2.3644   -4.7755   -4.1157 C.3       1 <0>        -0.1265
     17 C11         3.1981   -5.5021   -3.0430 C.3       1 <0>        -0.1274
     18 C12         2.4736   -5.1897   -1.7234 C.3       1 <0>         0.1181
     19 H5          2.4728   -6.0728   -1.0808 H         1 <0>         0.1096
     20 N2          1.0888   -4.8071   -2.0515 N.am      1 <0>        -0.5809
     21 C13         0.1305   -4.5892   -1.1350 C.2       1 <0>         0.5269
     22 O2          0.3843   -4.8447    0.0273 O.2       1 <0>        -0.5081
     23 C14         3.1740   -4.0517   -1.0202 C.2       1 <0>         0.5199
     24 O3          2.5812   -3.0160   -0.8035 O.2       1 <0>        -0.5282
     25 N3          4.4579   -4.1869   -0.6333 N.am      1 <0>        -0.7203
     26 C15         5.1375   -3.0828    0.0490 C.3       1 <0>         0.2369
     27 C16         4.8375   -3.1435    1.5246 C.ar      1 <0>        -0.0899
     28 C17         4.8074   -4.3633    2.1742 C.ar      1 <0>        -0.0991
     29 C18         4.5322   -4.4190    3.5277 C.ar      1 <0>        -0.1161
     30 C19         4.2876   -3.2547    4.2318 C.ar      1 <0>        -0.1160
     31 C20         4.3187   -2.0348    3.5824 C.ar      1 <0>        -0.1204
     32 C21         4.5981   -1.9788    2.2297 C.ar      1 <0>        -0.1049
     33 C22         6.6245   -3.1984   -0.1665 C.ar      1 <0>        -0.0947
     34 C23         7.2332   -4.4391   -0.1343 C.ar      1 <0>        -0.1123
     35 C24         8.5973   -4.5451   -0.3319 C.ar      1 <0>        -0.1120
     36 C25         9.3525   -3.4104   -0.5622 C.ar      1 <0>        -0.1121
     37 C26         8.7437   -2.1698   -0.5953 C.ar      1 <0>        -0.1126
     38 C27         7.3790   -2.0642   -0.4019 C.ar      1 <0>        -0.1045
     39 C28        -3.2266   -4.5365   -2.8781 C.3       1 <0>         0.0692
     40 O4         -3.6628   -5.0474   -4.1393 O.3       1 <0>        -0.3489
     41 C29        -4.9874   -5.1551   -4.3280 C.2       1 <0>         0.4632
     42 O5         -5.7512   -4.8265   -3.4513 O.2       1 <0>        -0.5109
     43 C30        -5.5219   -5.6860   -5.6332 C.3       1 <0>        -0.1486
     44 N4         -2.0833   -0.1607    1.2764 N.4       1 <0>        -0.6214
     45 H6          1.0039    1.9031    0.0027 H         1 <0>         0.0891
     46 H7         -0.5459    1.8868   -0.8726 H         1 <0>         0.0751
     47 H8         -0.5289    1.8773    0.9072 H         1 <0>         0.0552
     48 H9          0.5123   -0.3556   -0.8948 H         1 <0>         0.1178
     49 H10         0.5293   -0.3651    0.8851 H         1 <0>         0.0995
     50 H11        -1.1439   -2.0455   -2.1168 H         1 <0>         0.4121
     51 H12        -1.5046   -3.8835   -4.9012 H         1 <0>         0.0934
     52 H13        -1.6718   -2.5339   -3.7701 H         1 <0>         0.0682
     53 H14         0.6658   -3.0677   -4.8738 H         1 <0>         0.0902
     54 H15         0.6036   -2.6055   -3.1628 H         1 <0>         0.0727
     55 H16         2.3519   -5.3518   -5.0397 H         1 <0>         0.0957
     56 H17         2.7583   -3.7764   -4.2932 H         1 <0>         0.0814
     57 H18         3.2075   -6.5741   -3.2300 H         1 <0>         0.0949
     58 H19         4.2141   -5.1078   -3.0239 H         1 <0>         0.0914
     59 H20         4.9321   -5.0152   -0.8065 H         1 <0>         0.4017
     60 H21         4.7845   -2.1339   -0.3548 H         1 <0>         0.1012
     61 H22         4.9984   -5.2729    1.6242 H         1 <0>         0.1153
     62 H23         4.5079   -5.3721    4.0351 H         1 <0>         0.1232
     63 H24         4.0720   -3.2983    5.2891 H         1 <0>         0.1225
     64 H25         4.1273   -1.1253    4.1324 H         1 <0>         0.1212
     65 H26         4.6260   -1.0254    1.7231 H         1 <0>         0.1178
     66 H27         6.6432   -5.3255    0.0457 H         1 <0>         0.1180
     67 H28         9.0729   -5.5143   -0.3061 H         1 <0>         0.1268
     68 H29        10.4183   -3.4932   -0.7159 H         1 <0>         0.1265
     69 H30         9.3338   -1.2833   -0.7749 H         1 <0>         0.1269
     70 H31         6.9028   -1.0954   -0.4315 H         1 <0>         0.1222
     71 H32        -3.5843   -5.1863   -2.0794 H         1 <0>         0.0748
     72 H33        -3.6254   -3.5321   -2.7354 H         1 <0>         0.0693
     73 H34        -4.6902   -5.9277   -6.2950 H         1 <0>         0.0940
     74 H35        -6.1105   -6.5842   -5.4464 H         1 <0>         0.1097
     75 H36        -6.1516   -4.9300   -6.1023 H         1 <0>         0.1088
     76 H37        -3.0299   -0.5100    1.2835 H         1 <0>         0.4405
     77 H38        -1.5715   -0.5604    2.0487 H         1 <0>         0.4434
     78 H39        -2.0949    0.8443    1.3648 H         1 <0>         0.4409
@<TRIPOS>BOND
     1    1    2 1
     2    1   45 1
     3    1   46 1
     4    1   47 1
     5    2    3 1
     6    2   48 1
     7    2   49 1
     8    3    4 1
     9    3    5 1
    10    3   44 1
    11    5    6 2
    12    5    7 am
    13    7    8 1
    14    7   50 1
    15    8    9 1
    16    8   21 1
    17    8   10 1
    18   10   11 1
    19   10   12 1
    20   10   39 1
    21   12   13 1
    22   12   51 1
    23   12   52 1
    24   13   14 1
    25   13   53 1
    26   13   54 1
    27   14   15 1
    28   14   20 1
    29   14   16 1
    30   16   17 1
    31   16   55 1
    32   16   56 1
    33   17   18 1
    34   17   57 1
    35   17   58 1
    36   18   19 1
    37   18   20 1
    38   18   23 1
    39   20   21 am
    40   21   22 2
    41   23   24 2
    42   23   25 am
    43   25   26 1
    44   25   59 1
    45   26   27 1
    46   26   33 1
    47   26   60 1
    48   27   32 ar
    49   27   28 ar
    50   28   29 ar
    51   28   61 1
    52   29   30 ar
    53   29   62 1
    54   30   31 ar
    55   30   63 1
    56   31   32 ar
    57   31   64 1
    58   32   65 1
    59   33   38 ar
    60   33   34 ar
    61   34   35 ar
    62   34   66 1
    63   35   36 ar
    64   35   67 1
    65   36   37 ar
    66   36   68 1
    67   37   38 ar
    68   37   69 1
    69   38   70 1
    70   39   40 1
    71   39   71 1
    72   39   72 1
    73   40   41 1
    74   41   42 2
    75   41   43 1
    76   43   73 1
    77   43   74 1
    78   43   75 1
    79   44   76 1
    80   44   77 1
    81   44   78 1
@<TRIPOS>MOLECULE
CHEMBL481422
   72    75     0     0     0
SMALL
USER_CHARGES

@<TRIPOS>ATOM
      1 C1         -0.0187    1.5258    0.0104 C.3       1 <0>        -0.1749
      2 C2          0.0021   -0.0041    0.0020 C.3       1 <0>         0.0064
      3 H1          0.5293   -0.3651    0.8851 H         1 <0>         0.1601
      4 C3         -1.4117   -0.5257    0.0127 C.2       1 <0>         0.5164
      5 O1         -1.8076   -1.2234   -0.8969 O.2       1 <0>        -0.4898
      6 N1         -2.2363   -0.2169    1.0331 N.am      1 <0>        -0.6967
      7 C4         -3.6105   -0.7239    1.0435 C.3       1 <0>         0.1470
      8 H2         -3.5962   -1.7302    0.5937 H         1 <0>         0.1230
      9 C5         -4.1024   -0.8564    2.4802 C.3       1 <0>        -0.1284
     10 C6         -5.3906   -0.0796    2.7136 C.3       1 <0>        -0.1338
     11 C7         -5.0264    1.1912    3.4709 C.3       1 <0>        -0.1263
     12 C8         -4.0615    2.0437    2.6565 C.3       1 <0>        -0.1254
     13 C9         -4.7007    2.4603    1.3440 C.3       1 <0>         0.1494
     14 H3         -5.7590    2.7005    1.5134 H         1 <0>         0.0812
     15 C10        -3.9828    3.7262    0.8144 C.3       1 <0>        -0.1300
     16 C11        -4.4630    3.7531   -0.6555 C.3       1 <0>        -0.1292
     17 C12        -4.6779    2.2693   -0.9996 C.3       1 <0>         0.1121
     18 H4         -5.6601    2.1328   -1.4518 H         1 <0>         0.1018
     19 N2         -4.6033    1.4828    0.2660 N.am      1 <0>        -0.6196
     20 C13        -4.4855    0.1514    0.2121 C.2       1 <0>         0.5662
     21 O2         -5.1989   -0.4217   -0.6099 O.2       1 <0>        -0.5152
     22 C14        -3.6053    1.8139   -1.9571 C.2       1 <0>         0.5202
     23 O3         -2.8415    0.9284   -1.6356 O.2       1 <0>        -0.5245
     24 N3         -3.4955    2.3911   -3.1701 N.am      1 <0>        -0.7188
     25 C15        -2.4536    1.9489   -4.1002 C.3       1 <0>         0.2452
     26 C16        -2.9456    0.7528   -4.8738 C.ar      1 <0>        -0.0942
     27 C17        -4.2521    0.7102   -5.3235 C.ar      1 <0>        -0.0988
     28 C18        -4.7034   -0.3869   -6.0331 C.ar      1 <0>        -0.1130
     29 C19        -3.8481   -1.4412   -6.2934 C.ar      1 <0>        -0.1120
     30 C20        -2.5414   -1.3982   -5.8445 C.ar      1 <0>        -0.1164
     31 C21        -2.0889   -0.2992   -5.1386 C.ar      1 <0>        -0.1038
     32 C22        -2.1271    3.0664   -5.0571 C.ar      1 <0>        -0.0968
     33 C23        -3.1390    3.8603   -5.5637 C.ar      1 <0>        -0.1104
     34 C24        -2.8395    4.8854   -6.4414 C.ar      1 <0>        -0.1090
     35 C25        -1.5281    5.1169   -6.8121 C.ar      1 <0>        -0.1106
     36 C26        -0.5161    4.3235   -6.3048 C.ar      1 <0>        -0.1128
     37 C27        -0.8151    3.3011   -5.4238 C.ar      1 <0>        -0.1076
     38 N4          0.6897   -0.4778   -1.2066 N.4       1 <0>        -0.4941
     39 C28         2.1002   -0.0703   -1.1590 C.3       1 <0>        -0.0503
     40 H5          1.0039    1.9031    0.0027 H         1 <0>         0.0924
     41 H6         -0.5459    1.8868   -0.8726 H         1 <0>         0.0911
     42 H7         -0.5289    1.8773    0.9072 H         1 <0>         0.1045
     43 H8         -1.9197    0.3412    1.7606 H         1 <0>         0.4017
     44 H9         -4.2692   -1.9105    2.7124 H         1 <0>         0.0879
     45 H10        -3.3318   -0.4739    3.1591 H         1 <0>         0.0830
     46 H11        -5.8754    0.1777    1.7781 H         1 <0>         0.0731
     47 H12        -6.0751   -0.6788    3.3183 H         1 <0>         0.0800
     48 H13        -5.9244    1.7567    3.6986 H         1 <0>         0.0740
     49 H14        -4.5381    0.9064    4.4061 H         1 <0>         0.0706
     50 H15        -3.8114    2.9421    3.2334 H         1 <0>         0.0863
     51 H16        -3.1445    1.4904    2.4754 H         1 <0>         0.0616
     52 H17        -4.3217    4.6124    1.3490 H         1 <0>         0.0936
     53 H18        -2.9037    3.6131    0.8713 H         1 <0>         0.0748
     54 H19        -5.4038    4.2974   -0.7339 H         1 <0>         0.0926
     55 H20        -3.7062    4.1958   -1.2989 H         1 <0>         0.0852
     56 H21        -4.1064    3.0994   -3.4272 H         1 <0>         0.4036
     57 H22        -1.5587    1.6766   -3.5406 H         1 <0>         0.0906
     58 H23        -4.9203    1.5340   -5.1201 H         1 <0>         0.1146
     59 H24        -5.7243   -0.4204   -6.3839 H         1 <0>         0.1242
     60 H25        -4.2009   -2.2987   -6.8472 H         1 <0>         0.1243
     61 H26        -1.8733   -2.2221   -6.0476 H         1 <0>         0.1221
     62 H27        -1.0669   -0.2640   -4.7911 H         1 <0>         0.1096
     63 H28        -4.1636    3.6795   -5.2740 H         1 <0>         0.1189
     64 H29        -3.6301    5.5052   -6.8377 H         1 <0>         0.1281
     65 H30        -1.2942    5.9173   -7.4984 H         1 <0>         0.1275
     66 H31         0.5085    4.5041   -6.5948 H         1 <0>         0.1265
     67 H32        -0.0241    2.6837   -5.0245 H         1 <0>         0.1174
     68 H33         0.6317   -1.4840   -1.2540 H         1 <0>         0.4363
     69 H34         2.6104   -0.4218   -2.0558 H         1 <0>         0.1317
     70 H35         2.1628    1.0167   -1.1079 H         1 <0>         0.1257
     71 H36         2.5740   -0.5034   -0.2781 H         1 <0>         0.1264
     72 H37         0.2511   -0.0769   -2.0221 H         1 <0>         0.4339
@<TRIPOS>BOND
     1    1    2 1
     2    1   40 1
     3    1   41 1
     4    1   42 1
     5    2    3 1
     6    2    4 1
     7    2   38 1
     8    4    5 2
     9    4    6 am
    10    6    7 1
    11    6   43 1
    12    7    8 1
    13    7   20 1
    14    7    9 1
    15    9   10 1
    16    9   44 1
    17    9   45 1
    18   10   11 1
    19   10   46 1
    20   10   47 1
    21   11   12 1
    22   11   48 1
    23   11   49 1
    24   12   13 1
    25   12   50 1
    26   12   51 1
    27   13   14 1
    28   13   19 1
    29   13   15 1
    30   15   16 1
    31   15   52 1
    32   15   53 1
    33   16   17 1
    34   16   54 1
    35   16   55 1
    36   17   18 1
    37   17   19 1
    38   17   22 1
    39   19   20 am
    40   20   21 2
    41   22   23 2
    42   22   24 am
    43   24   25 1
    44   24   56 1
    45   25   26 1
    46   25   32 1
    47   25   57 1
    48   26   31 ar
    49   26   27 ar
    50   27   28 ar
    51   27   58 1
    52   28   29 ar
    53   28   59 1
    54   29   30 ar
    55   29   60 1
    56   30   31 ar
    57   30   61 1
    58   31   62 1
    59   32   37 ar
    60   32   33 ar
    61   33   34 ar
    62   33   63 1
    63   34   35 ar
    64   34   64 1
    65   35   36 ar
    66   35   65 1
    67   36   37 ar
    68   36   66 1
    69   37   67 1
    70   38   39 1
    71   38   68 1
    72   38   72 1
    73   39   69 1
    74   39   70 1
    75   39   71 1
@<TRIPOS>MOLECULE
CHEMBL363770
   83    84     0     0     0
SMALL
USER_CHARGES

@<TRIPOS>ATOM
      1 C1         -1.2410   -1.5765    0.4320 C.3       1 <0>        -0.1551
      2 C2         -1.6218   -0.6457   -0.7211 C.3       1 <0>        -0.1442
      3 C3         -0.7715    0.6245   -0.6532 C.3       1 <0>        -0.0841
      4 H1         -0.8659    1.0725    0.3361 H         1 <0>         0.0762
      5 C4         -1.2543    1.6186   -1.7113 C.3       1 <0>        -0.1522
      6 C5          0.6940    0.2719   -0.9157 C.3       1 <0>         0.1331
      7 H2          1.0242   -0.4719   -0.1905 H         1 <0>         0.1065
      8 C6          0.8345   -0.2870   -2.3081 C.2       1 <0>         0.5179
      9 O1          1.3448    0.3822   -3.1815 O.2       1 <0>        -0.5420
     10 N1          0.3932   -1.5305   -2.5828 N.am      1 <0>        -0.6865
     11 C7          0.6286   -2.1158   -3.9050 C.3       1 <0>         0.0816
     12 H3          1.5947   -1.7817   -4.2835 H         1 <0>         0.0831
     13 C8          0.6238   -3.6419   -3.7954 C.3       1 <0>        -0.0778
     14 C9          1.7878   -4.0883   -2.9488 C.ar      1 <0>        -0.0723
     15 C10         3.0076   -4.3599   -3.5406 C.ar      1 <0>        -0.0993
     16 C11         4.0760   -4.7698   -2.7668 C.ar      1 <0>        -0.1403
     17 C12         3.9246   -4.9083   -1.3947 C.ar      1 <0>         0.0872
     18 C13         2.6998   -4.6348   -0.8033 C.ar      1 <0>        -0.1417
     19 C14         1.6358   -4.2202   -1.5809 C.ar      1 <0>        -0.1040
     20 O2          4.9740   -5.3118   -0.6314 O.3       1 <0>        -0.5012
     21 C15        -0.4602   -1.6766   -4.8499 C.2       1 <0>         0.4923
     22 O3         -1.3503   -0.9427   -4.4554 O.co2     1 <0>        -0.6788
     23 O4         -0.4510   -2.0552   -6.0088 O.co2     1 <0>        -0.6934
     24 N2          1.5167    1.4774   -0.7879 N.am      1 <0>        -0.7011
     25 C16         1.9911    1.8447    0.4189 C.2       1 <0>         0.5131
     26 O5          1.8143    1.1304    1.3830 O.2       1 <0>        -0.5302
     27 C17         2.7413    3.1429    0.5703 C.3       1 <0>         0.1202
     28 H4          2.2222    3.9358    0.0320 H         1 <0>         0.1034
     29 C18         4.1752    2.9876    0.0214 C.3       1 <0>        -0.1248
     30 C19         5.0231    3.8114    1.0262 C.3       1 <0>        -0.1307
     31 C20         4.2823    3.5349    2.3583 C.3       1 <0>         0.0886
     32 N3          2.8511    3.4938    1.9938 N.am      1 <0>        -0.5895
     33 C21         1.8182    3.7368    2.8248 C.2       1 <0>         0.5330
     34 O6          0.6789    3.5953    2.4337 O.2       1 <0>        -0.5173
     35 C22         2.0788    4.1844    4.2400 C.3       1 <0>         0.1360
     36 H5          3.0347    4.7062    4.2858 H         1 <0>         0.1162
     37 C23         2.1194    2.9638    5.1616 C.3       1 <0>        -0.0968
     38 C24         3.1836    1.9838    4.6635 C.3       1 <0>        -0.1650
     39 C25         2.4630    3.4100    6.5842 C.3       1 <0>        -0.1352
     40 N4          1.0086    5.0869    4.6717 N.am      1 <0>        -0.6828
     41 C26         1.2405    5.9904    5.6445 C.2       1 <0>         0.5036
     42 O7          2.3352    6.0564    6.1625 O.2       1 <0>        -0.5233
     43 C27         0.1396    6.9188    6.0886 C.3       1 <0>         0.0089
     44 H6         -0.6985    6.3337    6.4671 H         1 <0>         0.1703
     45 C28        -0.3240    7.7649    4.9011 C.3       1 <0>        -0.1841
     46 N5          0.6412    7.8000    7.1516 N.4       1 <0>        -0.6194
     47 H7         -0.2160   -1.9218    0.2968 H         1 <0>         0.0494
     48 H8         -1.3212   -1.0373    1.3759 H         1 <0>         0.0540
     49 H9         -1.9144   -2.4335    0.4446 H         1 <0>         0.0576
     50 H10        -1.4442   -1.1514   -1.6702 H         1 <0>         0.0936
     51 H11        -2.6763   -0.3817   -0.6418 H         1 <0>         0.0706
     52 H12        -2.2670    1.9421   -1.4707 H         1 <0>         0.0519
     53 H13        -0.5908    2.4832   -1.7271 H         1 <0>         0.0468
     54 H14        -1.2491    1.1386   -2.6899 H         1 <0>         0.0821
     55 H15        -0.0802   -2.0378   -1.9051 H         1 <0>         0.3917
     56 H16        -0.3078   -3.9701   -3.3344 H         1 <0>         0.0727
     57 H17         0.7100   -4.0779   -4.7906 H         1 <0>         0.0976
     58 H18         3.1250   -4.2519   -4.6087 H         1 <0>         0.1295
     59 H19         5.0284   -4.9825   -3.2296 H         1 <0>         0.1255
     60 H20         2.5793   -4.7419    0.2646 H         1 <0>         0.1237
     61 H21         0.6834   -4.0029   -1.1204 H         1 <0>         0.1208
     62 H22         5.5202   -4.5865   -0.2986 H         1 <0>         0.3846
     63 H23         1.7200    2.0111   -1.5720 H         1 <0>         0.4100
     64 H24         4.4793    1.9408    0.0275 H         1 <0>         0.0874
     65 H25         4.2515    3.4065   -0.9820 H         1 <0>         0.1000
     66 H26         6.0485    3.4436    1.0658 H         1 <0>         0.0947
     67 H27         4.9997    4.8727    0.7791 H         1 <0>         0.0821
     68 H28         4.5963    2.5782    2.7756 H         1 <0>         0.0858
     69 H29         4.4682    4.3395    3.0698 H         1 <0>         0.0802
     70 H30         1.1454    2.4744    5.1596 H         1 <0>         0.0841
     71 H31         4.1656    2.4530    4.7225 H         1 <0>         0.0604
     72 H32         3.1712    1.0877    5.2840 H         1 <0>         0.0681
     73 H33         2.9720    1.7125    3.6293 H         1 <0>         0.0803
     74 H34         1.7049    4.1082    6.9391 H         1 <0>         0.0426
     75 H35         2.4919    2.5405    7.2408 H         1 <0>         0.0606
     76 H36         3.4370    3.8994    6.5862 H         1 <0>         0.0654
     77 H37         0.1331    5.0341    4.2575 H         1 <0>         0.4192
     78 H38         0.5141    8.3500    4.5227 H         1 <0>         0.0905
     79 H39        -0.6962    7.1110    4.1124 H         1 <0>         0.1136
     80 H40        -1.1203    8.4364    5.2224 H         1 <0>         0.1000
     81 H41         1.4171    8.3417    6.8012 H         1 <0>         0.4399
     82 H42        -0.0959    8.4216    7.4489 H         1 <0>         0.4427
     83 H43         0.9470    7.2420    7.9347 H         1 <0>         0.4424
@<TRIPOS>BOND
     1    1    2 1
     2    1   47 1
     3    1   48 1
     4    1   49 1
     5    2    3 1
     6    2   50 1
     7    2   51 1
     8    3    4 1
     9    3    5 1
    10    3    6 1
    11    5   52 1
    12    5   53 1
    13    5   54 1
    14    6    7 1
    15    6    8 1
    16    6   24 1
    17    8    9 2
    18    8   10 am
    19   10   11 1
    20   10   55 1
    21   11   12 1
    22   11   13 1
    23   11   21 1
    24   13   14 1
    25   13   56 1
    26   13   57 1
    27   14   19 ar
    28   14   15 ar
    29   15   16 ar
    30   15   58 1
    31   16   17 ar
    32   16   59 1
    33   17   18 ar
    34   17   20 1
    35   18   19 ar
    36   18   60 1
    37   19   61 1
    38   20   62 1
    39   21   22 2
    40   21   23 1
    41   24   25 am
    42   24   63 1
    43   25   26 2
    44   25   27 1
    45   27   28 1
    46   27   32 1
    47   27   29 1
    48   29   30 1
    49   29   64 1
    50   29   65 1
    51   30   31 1
    52   30   66 1
    53   30   67 1
    54   31   32 1
    55   31   68 1
    56   31   69 1
    57   32   33 am
    58   33   34 2
    59   33   35 1
    60   35   36 1
    61   35   37 1
    62   35   40 1
    63   37   38 1
    64   37   39 1
    65   37   70 1
    66   38   71 1
    67   38   72 1
    68   38   73 1
    69   39   74 1
    70   39   75 1
    71   39   76 1
    72   40   41 am
    73   40   77 1
    74   41   42 2
    75   41   43 1
    76   43   44 1
    77   43   45 1
    78   43   46 1
    79   45   78 1
    80   45   79 1
    81   45   80 1
    82   46   81 1
    83   46   82 1
    84   46   83 1
@<TRIPOS>MOLECULE
CHEMBL188062
   71    73     0     0     0
SMALL
USER_CHARGES

@<TRIPOS>ATOM
      1 C1         -0.1386    2.5115    2.1065 C.3       1 <0>        -0.1825
      2 C2         -0.3494    1.1365    1.4695 C.3       1 <0>         0.0047
      3 H1         -0.1988    1.2081    0.3924 H         1 <0>         0.1669
      4 C3          0.6374    0.1569    2.0507 C.2       1 <0>         0.5049
      5 O1          0.2407   -0.8289    2.6352 O.2       1 <0>        -0.5194
      6 N1          1.9608    0.3764    1.9208 N.am      1 <0>        -0.6831
      7 C4          2.9202   -0.5758    2.4857 C.3       1 <0>         0.1417
      8 H2          2.5218   -0.9855    3.4139 H         1 <0>         0.1130
      9 C5          4.2222    0.1294    2.7660 C.2       1 <0>         0.5379
     10 O2          4.6590    0.9346    1.9712 O.2       1 <0>        -0.5076
     11 N2          4.9012   -0.1348    3.8998 N.am      1 <0>        -0.5952
     12 C6          4.5435   -1.1608    4.8963 C.3       1 <0>         0.0872
     13 C7          5.8738   -1.4952    5.6161 C.3       1 <0>        -0.1330
     14 C8          6.5540   -0.1020    5.6768 C.3       1 <0>        -0.1263
     15 C9          6.1248    0.5481    4.3447 C.3       1 <0>         0.1187
     16 H3          5.9223    1.6078    4.4999 H         1 <0>         0.1043
     17 C10         7.2110    0.3765    3.3143 C.2       1 <0>         0.5082
     18 O3          6.9923   -0.2546    2.3019 O.2       1 <0>        -0.5095
     19 N3          8.4255    0.9244    3.5177 N.am      1 <0>        -0.7220
     20 C11         9.4814    0.7576    2.5160 C.3       1 <0>         0.1915
     21 C12        10.8439    0.8620    3.1982 C.3       1 <0>        -0.1258
     22 C13        11.9262    0.9040    2.1131 C.3       1 <0>        -0.1165
     23 C14        11.8282    2.2441    1.3869 C.3       1 <0>        -0.0852
     24 C15        10.4135    2.5005    0.9374 C.ar      1 <0>        -0.0666
     25 C16         9.3354    1.8205    1.4587 C.ar      1 <0>        -0.1014
     26 C17         8.0553    2.1097    1.0049 C.ar      1 <0>        -0.1042
     27 C18         7.8556    3.0697    0.0341 C.ar      1 <0>        -0.1283
     28 C19         8.9381    3.7494   -0.4919 C.ar      1 <0>        -0.1139
     29 C20        10.2106    3.4649   -0.0410 C.ar      1 <0>        -0.1274
     30 C21         3.1594   -1.7111    1.4884 C.3       1 <0>        -0.0672
     31 C22         3.5796   -1.1246    0.1392 C.3       1 <0>        -0.1468
     32 C23         4.2670   -2.6265    2.0137 C.3       1 <0>        -0.1573
     33 C24         1.8708   -2.5175    1.3148 C.3       1 <0>        -0.1315
     34 N4         -1.7168    0.6745    1.7431 N.4       1 <0>        -0.4940
     35 C25        -2.6768    1.5636    1.0753 C.3       1 <0>        -0.0503
     36 H4          0.8760    2.8542    1.9035 H         1 <0>         0.1108
     37 H5         -0.8523    3.2199    1.6862 H         1 <0>         0.0998
     38 H6         -0.2892    2.4398    3.1837 H         1 <0>         0.0905
     39 H7          2.2781    1.1649    1.4533 H         1 <0>         0.4173
     40 H8          3.8177   -0.7637    5.6058 H         1 <0>         0.0776
     41 H9          4.1463   -2.0474    4.4021 H         1 <0>         0.0867
     42 H10         5.6892   -1.8838    6.6176 H         1 <0>         0.0961
     43 H11         6.4695   -2.1956    5.0307 H         1 <0>         0.0826
     44 H12         6.1838    0.4712    6.5267 H         1 <0>         0.0940
     45 H13         7.6383   -0.2039    5.7218 H         1 <0>         0.0924
     46 H14         8.6004    1.4292    4.3273 H         1 <0>         0.4011
     47 H15         9.3860   -0.2248    2.0535 H         1 <0>         0.0979
     48 H16        10.8867    1.7732    3.7949 H         1 <0>         0.0732
     49 H17        11.0006   -0.0051    3.8397 H         1 <0>         0.0760
     50 H18        12.9101    0.8062    2.5719 H         1 <0>         0.0773
     51 H19        11.7682    0.0904    1.4052 H         1 <0>         0.0696
     52 H20        12.1414    3.0418    2.0605 H         1 <0>         0.0786
     53 H21        12.4848    2.2305    0.5170 H         1 <0>         0.0783
     54 H22         7.2090    1.5786    1.4149 H         1 <0>         0.1370
     55 H23         6.8570    3.2889   -0.3138 H         1 <0>         0.1161
     56 H24         8.7883    4.5003   -1.2536 H         1 <0>         0.1204
     57 H25        11.0559    3.9967   -0.4522 H         1 <0>         0.1216
     58 H26         4.4977   -0.5501    0.2628 H         1 <0>         0.0772
     59 H27         3.7501   -1.9334   -0.5714 H         1 <0>         0.0613
     60 H28         2.7905   -0.4724   -0.2351 H         1 <0>         0.0473
     61 H29         3.9300   -3.1177    2.9266 H         1 <0>         0.0588
     62 H30         4.5031   -3.3796    1.2619 H         1 <0>         0.0689
     63 H31         5.1571   -2.0345    2.2270 H         1 <0>         0.0766
     64 H32         1.0817   -1.8653    0.9405 H         1 <0>         0.0465
     65 H33         2.0412   -3.3263    0.6043 H         1 <0>         0.0608
     66 H34         1.5714   -2.9353    2.2760 H         1 <0>         0.0637
     67 H35        -1.8303   -0.2655    1.3946 H         1 <0>         0.4377
     68 H36        -2.5542    2.5791    1.4518 H         1 <0>         0.1274
     69 H37        -2.4972    1.5504    0.0003 H         1 <0>         0.1267
     70 H38        -3.6914    1.2208    1.2784 H         1 <0>         0.1336
     71 H39        -1.8831    0.6867    2.7383 H         1 <0>         0.4347
@<TRIPOS>BOND
     1    1    2 1
     2    1   36 1
     3    1   37 1
     4    1   38 1
     5    2    3 1
     6    2    4 1
     7    2   34 1
     8    4    5 2
     9    4    6 am
    10    6    7 1
    11    6   39 1
    12    7    8 1
    13    7    9 1
    14    7   30 1
    15    9   10 2
    16    9   11 am
    17   11   15 1
    18   11   12 1
    19   12   13 1
    20   12   40 1
    21   12   41 1
    22   13   14 1
    23   13   42 1
    24   13   43 1
    25   14   15 1
    26   14   44 1
    27   14   45 1
    28   15   16 1
    29   15   17 1
    30   17   18 2
    31   17   19 am
    32   19   20 1
    33   19   46 1
    34   20   25 1
    35   20   21 1
    36   20   47 1
    37   21   22 1
    38   21   48 1
    39   21   49 1
    40   22   23 1
    41   22   50 1
    42   22   51 1
    43   23   24 1
    44   23   52 1
    45   23   53 1
    46   24   29 ar
    47   24   25 ar
    48   25   26 ar
    49   26   27 ar
    50   26   54 1
    51   27   28 ar
    52   27   55 1
    53   28   29 ar
    54   28   56 1
    55   29   57 1
    56   30   31 1
    57   30   32 1
    58   30   33 1
    59   31   58 1
    60   31   59 1
    61   31   60 1
    62   32   61 1
    63   32   62 1
    64   32   63 1
    65   33   64 1
    66   33   65 1
    67   33   66 1
    68   34   35 1
    69   34   67 1
    70   34   71 1
    71   35   68 1
    72   35   69 1
    73   35   70 1
@<TRIPOS>MOLECULE
CHEMBL188062__1
   71    73     0     0     0
SMALL
USER_CHARGES

@<TRIPOS>ATOM
      1 C1         -0.4947    2.2614    2.0588 C.3       1 <0>        -0.1824
      2 C2         -0.5051    0.9159    1.3306 C.3       1 <0>         0.0047
      3 H1         -0.2551    1.0690    0.2807 H         1 <0>         0.1671
      4 C3          0.5097   -0.0036    1.9597 C.2       1 <0>         0.5050
      5 O1          0.1548   -1.0567    2.4456 O.2       1 <0>        -0.5196
      6 N1          1.8116    0.3442    1.9824 N.am      1 <0>        -0.6833
      7 C4          2.7980   -0.5497    2.5940 C.3       1 <0>         0.1416
      8 H2          2.3507   -1.0520    3.4516 H         1 <0>         0.1131
      9 C5          3.9901    0.2530    3.0475 C.2       1 <0>         0.5378
     10 O2          4.4275    1.1392    2.3445 O.2       1 <0>        -0.5083
     11 N2          4.5703   -0.0140    4.2344 N.am      1 <0>        -0.5948
     12 C6          4.1961   -1.1103    5.1464 C.3       1 <0>         0.0871
     13 C7          5.4693   -1.3791    5.9867 C.3       1 <0>        -0.1332
     14 C8          6.0281    0.0563    6.1735 C.3       1 <0>        -0.1273
     15 C9          5.6853    0.7358    4.8311 C.3       1 <0>         0.1190
     16 H3          5.3853    1.7689    5.0068 H         1 <0>         0.1046
     17 C10         6.8798    0.6949    3.9133 C.2       1 <0>         0.5088
     18 O3          6.8145    0.0984    2.8593 O.2       1 <0>        -0.5097
     19 N3          8.0207    1.3210    4.2637 N.am      1 <0>        -0.7217
     20 C11         9.1819    1.2813    3.3714 C.3       1 <0>         0.1913
     21 C12        10.0520    2.5112    3.6221 C.3       1 <0>        -0.1258
     22 C13        11.3620    2.3438    2.8432 C.3       1 <0>        -0.1165
     23 C14        12.1772    1.2346    3.5049 C.3       1 <0>        -0.0854
     24 C15        11.3382   -0.0033    3.6856 C.ar      1 <0>        -0.0665
     25 C16         9.9625    0.0188    3.6281 C.ar      1 <0>        -0.0975
     26 C17         9.2477   -1.1578    3.8099 C.ar      1 <0>        -0.1069
     27 C18         9.9047   -2.3484    4.0439 C.ar      1 <0>        -0.1288
     28 C19        11.2856   -2.3712    4.0977 C.ar      1 <0>        -0.1122
     29 C20        11.9976   -1.2029    3.9193 C.ar      1 <0>        -0.1244
     30 C21         3.2459   -1.5929    1.5684 C.3       1 <0>        -0.0671
     31 C22         3.7589   -0.8858    0.3123 C.3       1 <0>        -0.1470
     32 C23         4.3657   -2.4474    2.1658 C.3       1 <0>        -0.1569
     33 C24         2.0612   -2.4888    1.2014 C.3       1 <0>        -0.1313
     34 N4         -1.8412    0.3140    1.4330 N.4       1 <0>        -0.4940
     35 C25        -2.8119    1.1515    0.7159 C.3       1 <0>        -0.0503
     36 H4          0.4967    2.7080    1.9828 H         1 <0>         0.1109
     37 H5         -1.2287    2.9265    1.6037 H         1 <0>         0.0998
     38 H6         -0.7447    2.1083    3.1086 H         1 <0>         0.0905
     39 H7          2.0954    1.1864    1.5938 H         1 <0>         0.4172
     40 H8          3.3734   -0.8026    5.7919 H         1 <0>         0.0779
     41 H9          3.9217   -1.9992    4.5784 H         1 <0>         0.0866
     42 H10         5.2160   -1.8278    6.9472 H         1 <0>         0.0963
     43 H11         6.1742   -2.0045    5.4389 H         1 <0>         0.0820
     44 H12         5.5302    0.5590    7.0027 H         1 <0>         0.0944
     45 H13         7.1070    0.0332    6.3270 H         1 <0>         0.0924
     46 H14         8.0729    1.7980    5.1067 H         1 <0>         0.4011
     47 H15         8.8402    1.2883    2.3364 H         1 <0>         0.0984
     48 H16         9.5319    3.4052    3.2779 H         1 <0>         0.0755
     49 H17        10.2668    2.5981    4.6872 H         1 <0>         0.0734
     50 H18        11.1430    2.0723    1.8105 H         1 <0>         0.0695
     51 H19        11.9249    3.2770    2.8665 H         1 <0>         0.0772
     52 H20        13.0371    0.9977    2.8783 H         1 <0>         0.0787
     53 H21        12.5265    1.5774    4.4789 H         1 <0>         0.0791
     54 H22         8.1686   -1.1408    3.7681 H         1 <0>         0.1261
     55 H23         9.3417   -3.2592    4.1848 H         1 <0>         0.1182
     56 H24        11.8055   -3.3003    4.2790 H         1 <0>         0.1222
     57 H25        13.0766   -1.2215    3.9618 H         1 <0>         0.1225
     58 H26         4.6029   -0.2475    0.5737 H         1 <0>         0.0774
     59 H27         4.0780   -1.6290   -0.4184 H         1 <0>         0.0613
     60 H28         2.9611   -0.2770   -0.1133 H         1 <0>         0.0473
     61 H29         4.0102   -2.9259    3.0783 H         1 <0>         0.0582
     62 H30         4.6628   -3.2112    1.4471 H         1 <0>         0.0688
     63 H31         5.2219   -1.8139    2.3975 H         1 <0>         0.0771
     64 H32         1.2635   -1.8800    0.7758 H         1 <0>         0.0459
     65 H33         2.3803   -3.2320    0.4708 H         1 <0>         0.0609
     66 H34         1.6958   -2.9926    2.0963 H         1 <0>         0.0640
     67 H35        -1.8267   -0.6087    1.0248 H         1 <0>         0.4377
     68 H36        -2.8276    2.1482    1.1569 H         1 <0>         0.1274
     69 H37        -2.5250    1.2229   -0.3333 H         1 <0>         0.1267
     70 H38        -3.8033    0.7049    0.7919 H         1 <0>         0.1336
     71 H39        -2.1068    0.2479    2.4042 H         1 <0>         0.4347
@<TRIPOS>BOND
     1    1    2 1
     2    1   36 1
     3    1   37 1
     4    1   38 1
     5    2    3 1
     6    2    4 1
     7    2   34 1
     8    4    5 2
     9    4    6 am
    10    6    7 1
    11    6   39 1
    12    7    8 1
    13    7    9 1
    14    7   30 1
    15    9   10 2
    16    9   11 am
    17   11   15 1
    18   11   12 1
    19   12   13 1
    20   12   40 1
    21   12   41 1
    22   13   14 1
    23   13   42 1
    24   13   43 1
    25   14   15 1
    26   14   44 1
    27   14   45 1
    28   15   16 1
    29   15   17 1
    30   17   18 2
    31   17   19 am
    32   19   20 1
    33   19   46 1
    34   20   25 1
    35   20   21 1
    36   20   47 1
    37   21   22 1
    38   21   48 1
    39   21   49 1
    40   22   23 1
    41   22   50 1
    42   22   51 1
    43   23   24 1
    44   23   52 1
    45   23   53 1
    46   24   29 ar
    47   24   25 ar
    48   25   26 ar
    49   26   27 ar
    50   26   54 1
    51   27   28 ar
    52   27   55 1
    53   28   29 ar
    54   28   56 1
    55   29   57 1
    56   30   31 1
    57   30   32 1
    58   30   33 1
    59   31   58 1
    60   31   59 1
    61   31   60 1
    62   32   61 1
    63   32   62 1
    64   32   63 1
    65   33   64 1
    66   33   65 1
    67   33   66 1
    68   34   35 1
    69   34   67 1
    70   34   71 1
    71   35   68 1
    72   35   69 1
    73   35   70 1
@<TRIPOS>MOLECULE
CHEMBL575154
   84    87     0     0     0
SMALL
USER_CHARGES

@<TRIPOS>ATOM
      1 C1         -0.0187    1.5258    0.0104 C.3       1 <0>        -0.1703
      2 C2          0.0021   -0.0041    0.0020 C.3       1 <0>        -0.1417
      3 C3         -1.4333   -0.5336    0.0129 C.3       1 <0>         0.0107
      4 H1         -1.9862   -0.1019   -0.8214 H         1 <0>         0.1651
      5 C4         -1.4159   -2.0348   -0.1192 C.2       1 <0>         0.5042
      6 O1         -1.5501   -2.7316    0.8643 O.2       1 <0>        -0.4931
      7 N1         -1.2512   -2.6028   -1.3302 N.am      1 <0>        -0.6901
      8 C5         -1.2344   -4.0592   -1.4584 C.3       1 <0>         0.1561
      9 H2         -1.9415   -4.4722   -0.7218 H         1 <0>         0.1326
     10 C6         -1.6918   -4.4868   -2.8490 C.3       1 <0>        -0.1167
     11 H3         -1.3116   -5.4883   -3.0665 H         1 <0>         0.1070
     12 C7         -1.2059   -3.5091   -3.9135 C.3       1 <0>        -0.1255
     13 C8          0.3115   -3.3677   -3.8835 C.3       1 <0>        -0.1381
     14 C9          0.9536   -4.7013   -3.5066 C.3       1 <0>         0.1286
     15 H4          0.3468   -5.5249   -3.8879 H         1 <0>         0.0868
     16 C10         2.3644   -4.7755   -4.1157 C.3       1 <0>        -0.1270
     17 C11         3.1981   -5.5021   -3.0430 C.3       1 <0>        -0.1274
     18 C12         2.4736   -5.1897   -1.7234 C.3       1 <0>         0.1179
     19 H5          2.4728   -6.0728   -1.0808 H         1 <0>         0.1097
     20 N2          1.0888   -4.8071   -2.0515 N.am      1 <0>        -0.5817
     21 C13         0.1305   -4.5892   -1.1350 C.2       1 <0>         0.5249
     22 O2          0.3843   -4.8447    0.0273 O.2       1 <0>        -0.5056
     23 C14         3.1740   -4.0517   -1.0202 C.2       1 <0>         0.5196
     24 O3          2.5812   -3.0160   -0.8035 O.2       1 <0>        -0.5275
     25 N3          4.4579   -4.1869   -0.6333 N.am      1 <0>        -0.7202
     26 C15         5.1375   -3.0828    0.0490 C.3       1 <0>         0.2371
     27 C16         4.8375   -3.1435    1.5246 C.ar      1 <0>        -0.0903
     28 C17         4.8074   -4.3633    2.1742 C.ar      1 <0>        -0.0993
     29 C18         4.5322   -4.4190    3.5277 C.ar      1 <0>        -0.1160
     30 C19         4.2876   -3.2547    4.2318 C.ar      1 <0>        -0.1156
     31 C20         4.3187   -2.0348    3.5824 C.ar      1 <0>        -0.1201
     32 C21         4.5981   -1.9788    2.2297 C.ar      1 <0>        -0.1048
     33 C22         6.6245   -3.1984   -0.1665 C.ar      1 <0>        -0.0948
     34 C23         7.2332   -4.4391   -0.1343 C.ar      1 <0>        -0.1123
     35 C24         8.5973   -4.5451   -0.3319 C.ar      1 <0>        -0.1121
     36 C25         9.3525   -3.4104   -0.5622 C.ar      1 <0>        -0.1120
     37 C26         8.7437   -2.1698   -0.5953 C.ar      1 <0>        -0.1126
     38 C27         7.3790   -2.0642   -0.4019 C.ar      1 <0>        -0.1045
     39 C28        -3.2266   -4.5365   -2.8781 C.3       1 <0>         0.1332
     40 N4         -3.6738   -5.0603   -4.1711 N.pl3     1 <0>        -0.6909
     41 C29        -4.9907   -5.1937   -4.4251 C.2       1 <0>         0.5590
     42 S1         -6.1408   -4.7511   -3.2367 S.2       1 <0>        -0.6344
     43 N5         -5.4021   -5.6756   -5.6146 N.pl3     1 <0>        -0.6797
     44 C30        -6.8335   -5.8206   -5.8907 C.3       1 <0>         0.1170
     45 C31        -7.0265   -6.3843   -7.3000 C.3       1 <0>        -0.1706
     46 N6         -2.0833   -0.1607    1.2764 N.4       1 <0>        -0.6215
     47 H6          1.0039    1.9031    0.0027 H         1 <0>         0.0886
     48 H7         -0.5459    1.8868   -0.8726 H         1 <0>         0.0750
     49 H8         -0.5289    1.8773    0.9072 H         1 <0>         0.0555
     50 H9          0.5123   -0.3556   -0.8948 H         1 <0>         0.1169
     51 H10         0.5293   -0.3651    0.8851 H         1 <0>         0.0992
     52 H11        -1.1439   -2.0455   -2.1168 H         1 <0>         0.4109
     53 H12        -1.5046   -3.8835   -4.9012 H         1 <0>         0.0790
     54 H13        -1.6718   -2.5339   -3.7701 H         1 <0>         0.0750
     55 H14         0.6658   -3.0677   -4.8738 H         1 <0>         0.0896
     56 H15         0.6036   -2.6055   -3.1628 H         1 <0>         0.0762
     57 H16         2.3519   -5.3518   -5.0397 H         1 <0>         0.0944
     58 H17         2.7583   -3.7764   -4.2932 H         1 <0>         0.0819
     59 H18         3.2075   -6.5741   -3.2300 H         1 <0>         0.0944
     60 H19         4.2141   -5.1078   -3.0239 H         1 <0>         0.0917
     61 H20         4.9321   -5.0152   -0.8065 H         1 <0>         0.4016
     62 H21         4.7845   -2.1339   -0.3548 H         1 <0>         0.1012
     63 H22         4.9984   -5.2729    1.6242 H         1 <0>         0.1150
     64 H23         4.5079   -5.3721    4.0351 H         1 <0>         0.1232
     65 H24         4.0720   -3.2983    5.2891 H         1 <0>         0.1228
     66 H25         4.1273   -1.1253    4.1324 H         1 <0>         0.1214
     67 H26         4.6260   -1.0254    1.7231 H         1 <0>         0.1178
     68 H27         6.6432   -5.3255    0.0457 H         1 <0>         0.1178
     69 H28         9.0729   -5.5143   -0.3061 H         1 <0>         0.1267
     70 H29        10.4183   -3.4932   -0.7159 H         1 <0>         0.1265
     71 H30         9.3338   -1.2833   -0.7749 H         1 <0>         0.1269
     72 H31         6.9028   -1.0954   -0.4315 H         1 <0>         0.1223
     73 H32        -3.5843   -5.1863   -2.0794 H         1 <0>         0.0937
     74 H33        -3.6254   -3.5321   -2.7354 H         1 <0>         0.0894
     75 H34        -3.0221   -5.3111   -4.8444 H         1 <0>         0.3972
     76 H35        -4.7504   -5.9264   -6.2879 H         1 <0>         0.3980
     77 H36        -7.2767   -6.5009   -5.1635 H         1 <0>         0.0900
     78 H37        -7.3178   -4.8468   -5.8194 H         1 <0>         0.0893
     79 H38        -6.5422   -7.3581   -7.3713 H         1 <0>         0.0633
     80 H39        -8.0916   -6.4922   -7.5054 H         1 <0>         0.0864
     81 H40        -6.5833   -5.7040   -8.0272 H         1 <0>         0.0626
     82 H41        -1.5715   -0.5604    2.0487 H         1 <0>         0.4431
     83 H42        -2.0949    0.8443    1.3648 H         1 <0>         0.4407
     84 H43        -3.0299   -0.5100    1.2835 H         1 <0>         0.4416
@<TRIPOS>BOND
     1    1    2 1
     2    1   47 1
     3    1   48 1
     4    1   49 1
     5    2    3 1
     6    2   50 1
     7    2   51 1
     8    3    4 1
     9    3    5 1
    10    3   46 1
    11    5    6 2
    12    5    7 am
    13    7    8 1
    14    7   52 1
    15    8    9 1
    16    8   21 1
    17    8   10 1
    18   10   11 1
    19   10   12 1
    20   10   39 1
    21   12   13 1
    22   12   53 1
    23   12   54 1
    24   13   14 1
    25   13   55 1
    26   13   56 1
    27   14   15 1
    28   14   20 1
    29   14   16 1
    30   16   17 1
    31   16   57 1
    32   16   58 1
    33   17   18 1
    34   17   59 1
    35   17   60 1
    36   18   19 1
    37   18   20 1
    38   18   23 1
    39   20   21 am
    40   21   22 2
    41   23   24 2
    42   23   25 am
    43   25   26 1
    44   25   61 1
    45   26   27 1
    46   26   33 1
    47   26   62 1
    48   27   32 ar
    49   27   28 ar
    50   28   29 ar
    51   28   63 1
    52   29   30 ar
    53   29   64 1
    54   30   31 ar
    55   30   65 1
    56   31   32 ar
    57   31   66 1
    58   32   67 1
    59   33   38 ar
    60   33   34 ar
    61   34   35 ar
    62   34   68 1
    63   35   36 ar
    64   35   69 1
    65   36   37 ar
    66   36   70 1
    67   37   38 ar
    68   37   71 1
    69   38   72 1
    70   39   40 1
    71   39   73 1
    72   39   74 1
    73   40   41 1
    74   40   75 1
    75   41   42 2
    76   41   43 1
    77   43   44 1
    78   43   76 1
    79   44   45 1
    80   44   77 1
    81   44   78 1
    82   45   79 1
    83   45   80 1
    84   45   81 1
    85   46   82 1
    86   46   83 1
    87   46   84 1
@<TRIPOS>MOLECULE
CHEMBL584397
   84    87     0     0     0
SMALL
USER_CHARGES

@<TRIPOS>ATOM
      1 C1         -0.0187    1.5258    0.0104 C.3       1 <0>        -0.1701
      2 C2          0.0021   -0.0041    0.0020 C.3       1 <0>        -0.1417
      3 C3         -1.4333   -0.5336    0.0129 C.3       1 <0>         0.0105
      4 H1         -1.9862   -0.1019   -0.8214 H         1 <0>         0.1648
      5 C4         -1.4159   -2.0348   -0.1192 C.2       1 <0>         0.5031
      6 O1         -1.5501   -2.7316    0.8643 O.2       1 <0>        -0.4950
      7 N1         -1.2512   -2.6028   -1.3302 N.am      1 <0>        -0.6893
      8 C5         -1.2344   -4.0592   -1.4584 C.3       1 <0>         0.1540
      9 H2         -1.9415   -4.4722   -0.7218 H         1 <0>         0.1300
     10 C6         -1.6918   -4.4868   -2.8490 C.3       1 <0>        -0.1143
     11 H3         -1.3116   -5.4883   -3.0665 H         1 <0>         0.1075
     12 C7         -1.2059   -3.5091   -3.9135 C.3       1 <0>        -0.1242
     13 C8          0.3115   -3.3677   -3.8835 C.3       1 <0>        -0.1381
     14 C9          0.9536   -4.7013   -3.5066 C.3       1 <0>         0.1282
     15 H4          0.3468   -5.5249   -3.8879 H         1 <0>         0.0886
     16 C10         2.3644   -4.7755   -4.1157 C.3       1 <0>        -0.1269
     17 C11         3.1981   -5.5021   -3.0430 C.3       1 <0>        -0.1274
     18 C12         2.4736   -5.1897   -1.7234 C.3       1 <0>         0.1180
     19 H5          2.4728   -6.0728   -1.0808 H         1 <0>         0.1093
     20 N2          1.0888   -4.8071   -2.0515 N.am      1 <0>        -0.5813
     21 C13         0.1305   -4.5892   -1.1350 C.2       1 <0>         0.5253
     22 O2          0.3843   -4.8447    0.0273 O.2       1 <0>        -0.5079
     23 C14         3.1740   -4.0517   -1.0202 C.2       1 <0>         0.5197
     24 O3          2.5812   -3.0160   -0.8035 O.2       1 <0>        -0.5278
     25 N3          4.4579   -4.1869   -0.6333 N.am      1 <0>        -0.7203
     26 C15         5.1375   -3.0828    0.0490 C.3       1 <0>         0.2370
     27 C16         4.8375   -3.1435    1.5246 C.ar      1 <0>        -0.0900
     28 C17         4.8074   -4.3633    2.1742 C.ar      1 <0>        -0.0991
     29 C18         4.5322   -4.4190    3.5277 C.ar      1 <0>        -0.1161
     30 C19         4.2876   -3.2547    4.2318 C.ar      1 <0>        -0.1158
     31 C20         4.3187   -2.0348    3.5824 C.ar      1 <0>        -0.1202
     32 C21         4.5981   -1.9788    2.2297 C.ar      1 <0>        -0.1048
     33 C22         6.6245   -3.1984   -0.1665 C.ar      1 <0>        -0.0947
     34 C23         7.2332   -4.4391   -0.1343 C.ar      1 <0>        -0.1123
     35 C24         8.5973   -4.5451   -0.3319 C.ar      1 <0>        -0.1121
     36 C25         9.3525   -3.4104   -0.5622 C.ar      1 <0>        -0.1121
     37 C26         8.7437   -2.1698   -0.5953 C.ar      1 <0>        -0.1127
     38 C27         7.3790   -2.0642   -0.4019 C.ar      1 <0>        -0.1045
     39 C28        -3.2266   -4.5365   -2.8781 C.3       1 <0>         0.1460
     40 N4         -3.6738   -5.0603   -4.1711 N.am      1 <0>        -0.7482
     41 C29        -4.9907   -5.1937   -4.4251 C.2       1 <0>         0.7037
     42 O4         -5.8075   -4.8793   -3.5811 O.2       1 <0>        -0.5883
     43 N5         -5.4021   -5.6756   -5.6146 N.am      1 <0>        -0.7441
     44 C30        -6.8335   -5.8206   -5.8907 C.3       1 <0>         0.1314
     45 C31        -7.0265   -6.3843   -7.3000 C.3       1 <0>        -0.1673
     46 N6         -2.0833   -0.1607    1.2764 N.4       1 <0>        -0.6215
     47 H6          1.0039    1.9031    0.0027 H         1 <0>         0.0887
     48 H7         -0.5459    1.8868   -0.8726 H         1 <0>         0.0750
     49 H8         -0.5289    1.8773    0.9072 H         1 <0>         0.0552
     50 H9          0.5123   -0.3556   -0.8948 H         1 <0>         0.1173
     51 H10         0.5293   -0.3651    0.8851 H         1 <0>         0.0992
     52 H11        -1.1439   -2.0455   -2.1168 H         1 <0>         0.4112
     53 H12        -1.5046   -3.8835   -4.9012 H         1 <0>         0.0831
     54 H13        -1.6718   -2.5339   -3.7701 H         1 <0>         0.0725
     55 H14         0.6658   -3.0677   -4.8738 H         1 <0>         0.0893
     56 H15         0.6036   -2.6055   -3.1628 H         1 <0>         0.0743
     57 H16         2.3519   -5.3518   -5.0397 H         1 <0>         0.0948
     58 H17         2.7583   -3.7764   -4.2932 H         1 <0>         0.0815
     59 H18         3.2075   -6.5741   -3.2300 H         1 <0>         0.0945
     60 H19         4.2141   -5.1078   -3.0239 H         1 <0>         0.0913
     61 H20         4.9321   -5.0152   -0.8065 H         1 <0>         0.4016
     62 H21         4.7845   -2.1339   -0.3548 H         1 <0>         0.1012
     63 H22         4.9984   -5.2729    1.6242 H         1 <0>         0.1152
     64 H23         4.5079   -5.3721    4.0351 H         1 <0>         0.1232
     65 H24         4.0720   -3.2983    5.2891 H         1 <0>         0.1226
     66 H25         4.1273   -1.1253    4.1324 H         1 <0>         0.1213
     67 H26         4.6260   -1.0254    1.7231 H         1 <0>         0.1178
     68 H27         6.6432   -5.3255    0.0457 H         1 <0>         0.1179
     69 H28         9.0729   -5.5143   -0.3061 H         1 <0>         0.1267
     70 H29        10.4183   -3.4932   -0.7159 H         1 <0>         0.1265
     71 H30         9.3338   -1.2833   -0.7749 H         1 <0>         0.1269
     72 H31         6.9028   -1.0954   -0.4315 H         1 <0>         0.1222
     73 H32        -3.5843   -5.1863   -2.0794 H         1 <0>         0.0734
     74 H33        -3.6254   -3.5321   -2.7354 H         1 <0>         0.0686
     75 H34        -3.0221   -5.3111   -4.8444 H         1 <0>         0.3972
     76 H35        -4.7504   -5.9264   -6.2879 H         1 <0>         0.3972
     77 H36        -7.2767   -6.5009   -5.1635 H         1 <0>         0.0680
     78 H37        -7.3178   -4.8468   -5.8194 H         1 <0>         0.0672
     79 H38        -6.5422   -7.3581   -7.3713 H         1 <0>         0.0629
     80 H39        -8.0916   -6.4922   -7.5054 H         1 <0>         0.0786
     81 H40        -6.5833   -5.7040   -8.0272 H         1 <0>         0.0622
     82 H41        -1.5715   -0.5604    2.0487 H         1 <0>         0.4432
     83 H42        -2.0949    0.8443    1.3648 H         1 <0>         0.4406
     84 H43        -3.0299   -0.5100    1.2835 H         1 <0>         0.4409
@<TRIPOS>BOND
     1    1    2 1
     2    1   47 1
     3    1   48 1
     4    1   49 1
     5    2    3 1
     6    2   50 1
     7    2   51 1
     8    3    4 1
     9    3    5 1
    10    3   46 1
    11    5    6 2
    12    5    7 am
    13    7    8 1
    14    7   52 1
    15    8    9 1
    16    8   21 1
    17    8   10 1
    18   10   11 1
    19   10   12 1
    20   10   39 1
    21   12   13 1
    22   12   53 1
    23   12   54 1
    24   13   14 1
    25   13   55 1
    26   13   56 1
    27   14   15 1
    28   14   20 1
    29   14   16 1
    30   16   17 1
    31   16   57 1
    32   16   58 1
    33   17   18 1
    34   17   59 1
    35   17   60 1
    36   18   19 1
    37   18   20 1
    38   18   23 1
    39   20   21 am
    40   21   22 2
    41   23   24 2
    42   23   25 am
    43   25   26 1
    44   25   61 1
    45   26   27 1
    46   26   33 1
    47   26   62 1
    48   27   32 ar
    49   27   28 ar
    50   28   29 ar
    51   28   63 1
    52   29   30 ar
    53   29   64 1
    54   30   31 ar
    55   30   65 1
    56   31   32 ar
    57   31   66 1
    58   32   67 1
    59   33   38 ar
    60   33   34 ar
    61   34   35 ar
    62   34   68 1
    63   35   36 ar
    64   35   69 1
    65   36   37 ar
    66   36   70 1
    67   37   38 ar
    68   37   71 1
    69   38   72 1
    70   39   40 1
    71   39   73 1
    72   39   74 1
    73   40   41 am
    74   40   75 1
    75   41   42 2
    76   41   43 am
    77   43   44 1
    78   43   76 1
    79   44   45 1
    80   44   77 1
    81   44   78 1
    82   45   79 1
    83   45   80 1
    84   45   81 1
    85   46   82 1
    86   46   83 1
    87   46   84 1
@<TRIPOS>MOLECULE
CHEMBL180204
   68    70     0     0     0
SMALL
USER_CHARGES

@<TRIPOS>ATOM
      1 C1          3.2350    1.1684   -0.4048 C.3       1 <0>        -0.1838
      2 C2          2.4772   -0.1401   -0.1713 C.3       1 <0>         0.0090
      3 H1          1.5742    0.0610    0.4052 H         1 <0>         0.1705
      4 C3          2.1011   -0.7465   -1.4987 C.2       1 <0>         0.5047
      5 O1          2.5062   -1.8499   -1.7978 O.2       1 <0>        -0.5211
      6 N1          1.3147   -0.0628   -2.3533 N.am      1 <0>        -0.6853
      7 C4          0.9491   -0.6524   -3.6437 C.3       1 <0>         0.1367
      8 H2          1.7822   -1.2452   -4.0214 H         1 <0>         0.1151
      9 C5         -0.2764   -1.5508   -3.4650 C.3       1 <0>        -0.0955
     10 C6         -0.5806   -2.2664   -4.7827 C.3       1 <0>        -0.1581
     11 C7          0.0053   -2.5869   -2.3751 C.3       1 <0>        -0.1381
     12 C8          0.6284    0.4456   -4.6248 C.2       1 <0>         0.5390
     13 O2          0.0822    1.4591   -4.2435 O.2       1 <0>        -0.5177
     14 N2          0.9484    0.3012   -5.9260 N.am      1 <0>        -0.5930
     15 C9          1.6878   -0.8335   -6.5082 C.3       1 <0>         0.0856
     16 C10         1.2658   -0.8591   -7.9985 C.3       1 <0>        -0.1331
     17 C11         1.1583    0.6554   -8.3179 C.3       1 <0>        -0.1264
     18 C12         0.6125    1.2463   -7.0010 C.3       1 <0>         0.1192
     19 H3          1.0820    2.2106   -6.8070 H         1 <0>         0.1063
     20 C13        -0.8829    1.4100   -7.0907 C.2       1 <0>         0.5127
     21 O3         -1.6064    0.7991   -6.3328 O.2       1 <0>        -0.5122
     22 N3         -1.4164    2.2351   -8.0132 N.am      1 <0>        -0.7203
     23 C14        -2.8701    2.3942   -8.1005 C.3       1 <0>         0.2344
     24 C15        -3.1931    3.7330   -8.7124 C.ar      1 <0>        -0.0921
     25 C16        -2.4419    4.2084   -9.7710 C.ar      1 <0>        -0.1123
     26 C17        -2.7382    5.4364  -10.3323 C.ar      1 <0>        -0.1139
     27 C18        -3.7859    6.1888   -9.8353 C.ar      1 <0>        -0.1136
     28 C19        -4.5377    5.7130   -8.7773 C.ar      1 <0>        -0.1128
     29 C20        -4.2441    4.4831   -8.2188 C.ar      1 <0>        -0.1038
     30 C21        -3.4448    1.2975   -8.9594 C.ar      1 <0>        -0.0905
     31 C22        -2.7781    0.8921  -10.1005 C.ar      1 <0>        -0.1044
     32 C23        -3.3053   -0.1140  -10.8884 C.ar      1 <0>        -0.1195
     33 C24        -4.4990   -0.7149  -10.5351 C.ar      1 <0>        -0.1162
     34 C25        -5.1652   -0.3101   -9.3935 C.ar      1 <0>        -0.1163
     35 C26        -4.6359    0.6929   -8.6033 C.ar      1 <0>        -0.1016
     36 N4          3.3331   -1.0761    0.5698 N.4       1 <0>        -0.6197
     37 H4          4.1380    0.9674   -0.9813 H         1 <0>         0.0907
     38 H5          2.6000    1.8629   -0.9548 H         1 <0>         0.1120
     39 H6          3.5070    1.6070    0.5552 H         1 <0>         0.1009
     40 H7          0.9907    0.8196   -2.1141 H         1 <0>         0.4183
     41 H8         -1.1335   -0.9427   -3.1756 H         1 <0>         0.0849
     42 H9          0.2520   -2.9207   -5.0414 H         1 <0>         0.0594
     43 H10        -1.4883   -2.8597   -4.6728 H         1 <0>         0.0688
     44 H11        -0.7221   -1.5288   -5.5726 H         1 <0>         0.0740
     45 H12         0.2220   -2.0770   -1.4364 H         1 <0>         0.0396
     46 H13        -0.8678   -3.2269   -2.2478 H         1 <0>         0.0626
     47 H14         0.8624   -3.1949   -2.6646 H         1 <0>         0.0701
     48 H15         2.7621   -0.6712   -6.4209 H         1 <0>         0.0792
     49 H16         1.4028   -1.7640   -6.0172 H         1 <0>         0.0878
     50 H17         2.0303   -1.3347   -8.6129 H         1 <0>         0.0965
     51 H18         0.3027   -1.3541   -8.1234 H         1 <0>         0.0830
     52 H19         2.1383    1.0702   -8.5540 H         1 <0>         0.0952
     53 H20         0.4581    0.8285   -9.1350 H         1 <0>         0.0911
     54 H21        -0.8378    2.7237   -8.6194 H         1 <0>         0.4001
     55 H22        -3.3024    2.3376   -7.1015 H         1 <0>         0.1034
     56 H23        -1.6233    3.6206  -10.1592 H         1 <0>         0.1177
     57 H24        -2.1508    5.8082  -11.1589 H         1 <0>         0.1258
     58 H25        -4.0170    7.1486  -10.2734 H         1 <0>         0.1257
     59 H26        -5.3561    6.3010   -8.3889 H         1 <0>         0.1267
     60 H27        -4.8338    4.1096   -7.3947 H         1 <0>         0.1237
     61 H28        -1.8455    1.3616  -10.3766 H         1 <0>         0.1145
     62 H29        -2.7847   -0.4302  -11.7803 H         1 <0>         0.1224
     63 H30        -4.9112   -1.5004  -11.1511 H         1 <0>         0.1229
     64 H31        -6.0980   -0.7794   -9.1176 H         1 <0>         0.1238
     65 H32        -5.1545    1.0066   -7.7094 H         1 <0>         0.1206
     66 H33         3.5848   -0.6700    1.4585 H         1 <0>         0.4437
     67 H34         2.8333   -1.9390    0.7238 H         1 <0>         0.4431
     68 H35         4.1689   -1.2622    0.0362 H         1 <0>         0.4402
@<TRIPOS>BOND
     1    1    2 1
     2    1   37 1
     3    1   38 1
     4    1   39 1
     5    2    3 1
     6    2    4 1
     7    2   36 1
     8    4    5 2
     9    4    6 am
    10    6    7 1
    11    6   40 1
    12    7    8 1
    13    7    9 1
    14    7   12 1
    15    9   10 1
    16    9   11 1
    17    9   41 1
    18   10   42 1
    19   10   43 1
    20   10   44 1
    21   11   45 1
    22   11   46 1
    23   11   47 1
    24   12   13 2
    25   12   14 am
    26   14   18 1
    27   14   15 1
    28   15   16 1
    29   15   48 1
    30   15   49 1
    31   16   17 1
    32   16   50 1
    33   16   51 1
    34   17   18 1
    35   17   52 1
    36   17   53 1
    37   18   19 1
    38   18   20 1
    39   20   21 2
    40   20   22 am
    41   22   23 1
    42   22   54 1
    43   23   24 1
    44   23   30 1
    45   23   55 1
    46   24   29 ar
    47   24   25 ar
    48   25   26 ar
    49   25   56 1
    50   26   27 ar
    51   26   57 1
    52   27   28 ar
    53   27   58 1
    54   28   29 ar
    55   28   59 1
    56   29   60 1
    57   30   35 ar
    58   30   31 ar
    59   31   32 ar
    60   31   61 1
    61   32   33 ar
    62   32   62 1
    63   33   34 ar
    64   33   63 1
    65   34   35 ar
    66   34   64 1
    67   35   65 1
    68   36   66 1
    69   36   67 1
    70   36   68 1
@<TRIPOS>MOLECULE
CHEMBL573788
   87    90     0     0     0
SMALL
USER_CHARGES

@<TRIPOS>ATOM
      1 C1          0.1675    1.8717   -0.1937 C.3       1 <0>        -0.1721
      2 C2          0.1964    0.3488   -0.0497 C.3       1 <0>        -0.1427
      3 C3          0.7336   -0.2753   -1.3393 C.3       1 <0>         0.0082
      4 H1          1.7030    0.1621   -1.5782 H         1 <0>         0.1601
      5 C4          0.8860   -1.7628   -1.1519 C.2       1 <0>         0.5077
      6 O1          0.0403   -2.5180   -1.5826 O.2       1 <0>        -0.4919
      7 N1          1.9620   -2.2539   -0.5058 N.am      1 <0>        -0.6955
      8 C5          2.1099   -3.6971   -0.3241 C.3       1 <0>         0.1525
      9 H2          1.6998   -4.1946   -1.2170 H         1 <0>         0.1273
     10 C6          3.5807   -4.0803   -0.1990 C.3       1 <0>        -0.0968
     11 H3          3.6652   -5.0413    0.3150 H         1 <0>         0.1120
     12 C7          4.3637   -3.0174    0.5642 C.3       1 <0>        -0.1297
     13 C8          3.7676   -2.7769    1.9463 C.3       1 <0>        -0.1423
     14 C9          3.2111   -4.0827    2.5102 C.3       1 <0>         0.1303
     15 H4          3.8107   -4.9236    2.1566 H         1 <0>         0.0859
     16 C10         3.2527   -4.0302    4.0472 C.3       1 <0>        -0.1284
     17 C11         1.9647   -4.7552    4.4822 C.3       1 <0>        -0.1278
     18 C12         1.0026   -4.5619    3.2985 C.3       1 <0>         0.1168
     19 H5          0.4280   -5.4758    3.1325 H         1 <0>         0.1116
     20 N2          1.8133   -4.2558    2.1066 N.am      1 <0>        -0.5804
     21 C13         1.3145   -4.1511    0.8632 C.2       1 <0>         0.5183
     22 O2          0.1478   -4.4500    0.6897 O.2       1 <0>        -0.5045
     23 C14         0.0618   -3.4184    3.5943 C.2       1 <0>         0.5196
     24 O3          0.0564   -2.4375    2.8810 O.2       1 <0>        -0.5316
     25 N3         -0.7719   -3.4878    4.6510 N.am      1 <0>        -0.7172
     26 C15        -1.6847   -2.3784    4.9380 C.3       1 <0>         0.2380
     27 C16        -2.8729   -2.8922    5.7094 C.ar      1 <0>        -0.0985
     28 C17        -2.6959   -3.8366    6.7033 C.ar      1 <0>        -0.1124
     29 C18        -3.7858   -4.3079    7.4109 C.ar      1 <0>        -0.1116
     30 C19        -5.0527   -3.8345    7.1250 C.ar      1 <0>        -0.1098
     31 C20        -5.2297   -2.8894    6.1318 C.ar      1 <0>        -0.1117
     32 C21        -4.1392   -2.4150    5.4271 C.ar      1 <0>        -0.1044
     33 C22        -0.9669   -1.3362    5.7563 C.ar      1 <0>        -0.0903
     34 C23        -0.0980   -1.7229    6.7595 C.ar      1 <0>        -0.1044
     35 C24         0.5604   -0.7670    7.5102 C.ar      1 <0>        -0.1170
     36 C25         0.3502    0.5757    7.2574 C.ar      1 <0>        -0.1150
     37 C26        -0.5180    0.9624    6.2536 C.ar      1 <0>        -0.1166
     38 C27        -1.1731    0.0064    5.5001 C.ar      1 <0>        -0.1042
     39 C28         4.1804   -4.2307   -1.6049 C.3       1 <0>        -0.1486
     40 C29         5.6204   -4.7356   -1.4939 C.3       1 <0>        -0.0148
     41 N4          6.1939   -4.8795   -2.8386 N.4       1 <0>        -0.5104
     42 C30         7.5765   -5.3643   -2.7320 C.3       1 <0>        -0.0102
     43 C31         8.1738   -5.5142   -4.1326 C.3       1 <0>        -0.1918
     44 N5         -0.2057   -0.0138   -2.4381 N.4       1 <0>        -0.4960
     45 C32         0.3742   -0.4887   -3.7014 C.3       1 <0>        -0.0531
     46 H6          1.1545    2.2275   -0.4895 H         1 <0>         0.0733
     47 H7         -0.5622    2.1511   -0.9537 H         1 <0>         0.0586
     48 H8         -0.1103    2.3216    0.7595 H         1 <0>         0.0922
     49 H9          0.8435    0.0748    0.7835 H         1 <0>         0.1170
     50 H10        -0.8128   -0.0176    0.1383 H         1 <0>         0.0998
     51 H11         2.6384   -1.6499   -0.1614 H         1 <0>         0.4111
     52 H12         5.4005   -3.3583    0.6830 H         1 <0>         0.0827
     53 H13         4.3806   -2.0845    0.0004 H         1 <0>         0.0738
     54 H14         4.5472   -2.4021    2.6156 H         1 <0>         0.0932
     55 H15         2.9717   -2.0360    1.8883 H         1 <0>         0.0785
     56 H16         4.1286   -4.5566    4.4240 H         1 <0>         0.0959
     57 H17         3.2465   -2.9991    4.3960 H         1 <0>         0.0836
     58 H18         2.1607   -5.8128    4.6474 H         1 <0>         0.0960
     59 H19         1.5592   -4.2955    5.3834 H         1 <0>         0.0927
     60 H20        -0.7677   -4.2723    5.2215 H         1 <0>         0.4026
     61 H21        -2.0235   -1.9351    4.0016 H         1 <0>         0.0999
     62 H22        -1.7061   -4.2065    6.9266 H         1 <0>         0.1170
     63 H23        -3.6476   -5.0462    8.1869 H         1 <0>         0.1279
     64 H24        -5.9044   -4.2032    7.6774 H         1 <0>         0.1282
     65 H25        -6.2195   -2.5198    5.9083 H         1 <0>         0.1280
     66 H26        -4.2769   -1.6739    4.6537 H         1 <0>         0.1214
     67 H27         0.0661   -2.7720    6.9570 H         1 <0>         0.1148
     68 H28         1.2387   -1.0691    8.2944 H         1 <0>         0.1239
     69 H29         0.8641    1.3226    7.8443 H         1 <0>         0.1243
     70 H30        -0.6824    2.0115    6.0563 H         1 <0>         0.1234
     71 H31        -1.8485    0.3085    4.7134 H         1 <0>         0.1178
     72 H32         3.5883   -4.9442   -2.1780 H         1 <0>         0.0969
     73 H33         4.1721   -3.2641   -2.1088 H         1 <0>         0.0903
     74 H34         6.2124   -4.0221   -0.9208 H         1 <0>         0.1366
     75 H35         5.6286   -5.7022   -0.9900 H         1 <0>         0.1372
     76 H36         5.6458   -5.5400   -3.3691 H         1 <0>         0.4295
     77 H37         8.1685   -4.6508   -2.1589 H         1 <0>         0.1322
     78 H38         7.5847   -6.3309   -2.2282 H         1 <0>         0.1333
     79 H39         7.5817   -6.2277   -4.7057 H         1 <0>         0.0820
     80 H40         8.1656   -4.5477   -4.6364 H         1 <0>         0.0807
     81 H41         9.1997   -5.8739   -4.0535 H         1 <0>         0.1105
     82 H42        -1.0725   -0.4994   -2.2623 H         1 <0>         0.4401
     83 H43        -0.2758   -0.2046   -4.5290 H         1 <0>         0.1356
     84 H44         1.3576   -0.0399   -3.8412 H         1 <0>         0.1221
     85 H45         0.4710   -1.5740   -3.6715 H         1 <0>         0.1251
     86 H46         6.1862   -3.9848   -3.3050 H         1 <0>         0.4266
     87 H47        -0.3824    0.9776   -2.5008 H         1 <0>         0.4375
@<TRIPOS>BOND
     1    1    2 1
     2    1   46 1
     3    1   47 1
     4    1   48 1
     5    2    3 1
     6    2   49 1
     7    2   50 1
     8    3    4 1
     9    3    5 1
    10    3   44 1
    11    5    6 2
    12    5    7 am
    13    7    8 1
    14    7   51 1
    15    8    9 1
    16    8   21 1
    17    8   10 1
    18   10   11 1
    19   10   12 1
    20   10   39 1
    21   12   13 1
    22   12   52 1
    23   12   53 1
    24   13   14 1
    25   13   54 1
    26   13   55 1
    27   14   15 1
    28   14   20 1
    29   14   16 1
    30   16   17 1
    31   16   56 1
    32   16   57 1
    33   17   18 1
    34   17   58 1
    35   17   59 1
    36   18   19 1
    37   18   20 1
    38   18   23 1
    39   20   21 am
    40   21   22 2
    41   23   24 2
    42   23   25 am
    43   25   26 1
    44   25   60 1
    45   26   27 1
    46   26   33 1
    47   26   61 1
    48   27   32 ar
    49   27   28 ar
    50   28   29 ar
    51   28   62 1
    52   29   30 ar
    53   29   63 1
    54   30   31 ar
    55   30   64 1
    56   31   32 ar
    57   31   65 1
    58   32   66 1
    59   33   38 ar
    60   33   34 ar
    61   34   35 ar
    62   34   67 1
    63   35   36 ar
    64   35   68 1
    65   36   37 ar
    66   36   69 1
    67   37   38 ar
    68   37   70 1
    69   38   71 1
    70   39   40 1
    71   39   72 1
    72   39   73 1
    73   40   41 1
    74   40   74 1
    75   40   75 1
    76   41   42 1
    77   41   76 1
    78   41   86 1
    79   42   43 1
    80   42   77 1
    81   42   78 1
    82   43   79 1
    83   43   80 1
    84   43   81 1
    85   44   45 1
    86   44   82 1
    87   44   87 1
    88   45   83 1
    89   45   84 1
    90   45   85 1
@<TRIPOS>MOLECULE
CHEMBL514738
   69    72     0     0     0
SMALL
USER_CHARGES

@<TRIPOS>ATOM
      1 C1          1.9181   -0.6495   -1.0982 C.3       1 <0>        -0.1703
      2 C2          1.3524   -2.0711   -1.0852 C.3       1 <0>        -0.1411
      3 C3          2.0140   -2.8730    0.0373 C.3       1 <0>         0.0076
      4 H1          1.8484   -2.3696    0.9898 H         1 <0>         0.1615
      5 C4          1.4143   -4.2546    0.0884 C.2       1 <0>         0.5198
      6 O1          2.0007   -5.1892   -0.4151 O.2       1 <0>        -0.5153
      7 N1          0.2263   -4.4516    0.6936 N.am      1 <0>        -0.6831
      8 C5         -0.3567   -5.7947    0.7433 C.3       1 <0>         0.1541
      9 H2          0.4458   -6.5251    0.8460 H         1 <0>         0.1216
     10 C6         -1.2659   -5.8912    1.9478 C.3       1 <0>        -0.1297
     11 C7         -1.7447   -7.2940    2.2100 C.3       1 <0>        -0.1173
     12 C8         -2.8846   -7.7376    1.3505 C.3       1 <0>        -0.1374
     13 C9         -2.4774   -8.1001   -0.0708 C.3       1 <0>         0.1281
     14 H3         -1.6969   -8.8608   -0.0562 H         1 <0>         0.0889
     15 C10        -3.7424   -8.6435   -0.7834 C.3       1 <0>        -0.1293
     16 C11        -3.5157   -8.2185   -2.2531 C.3       1 <0>        -0.1231
     17 C12        -2.7888   -6.8691   -2.1023 C.3       1 <0>         0.1214
     18 H4         -2.0997   -6.7235   -2.9342 H         1 <0>         0.1154
     19 N2         -2.0246   -6.9233   -0.8238 N.am      1 <0>        -0.5675
     20 C13        -1.0842   -6.0523   -0.5266 C.2       1 <0>         0.5190
     21 O2         -0.7443   -5.3438   -1.4503 O.2       1 <0>        -0.5576
     22 C14        -3.7932   -5.7461   -2.0654 C.2       1 <0>         0.5230
     23 O3         -4.1426   -5.2798   -1.0016 O.2       1 <0>        -0.4991
     24 N3         -4.3032   -5.2601   -3.2143 N.am      1 <0>        -0.5018
     25 C15        -3.9917   -5.8741   -4.4336 C.ar      1 <0>         0.1077
     26 C16        -2.7304   -5.7127   -4.9918 C.ar      1 <0>        -0.1123
     27 C17        -2.4263   -6.3196   -6.1945 C.ar      1 <0>        -0.1059
     28 C18        -3.3764   -7.0870   -6.8432 C.ar      1 <0>        -0.1044
     29 C19        -4.6333   -7.2496   -6.2900 C.ar      1 <0>        -0.1040
     30 C20        -4.9416   -6.6504   -5.0844 C.ar      1 <0>        -0.1107
     31 C21        -5.1445   -4.1410   -3.1887 C.ar      1 <0>         0.1445
     32 C22        -5.3363   -3.4416   -2.0045 C.ar      1 <0>        -0.1586
     33 C23        -6.1668   -2.3383   -1.9825 C.ar      1 <0>        -0.0999
     34 C24        -6.8074   -1.9302   -3.1380 C.ar      1 <0>        -0.1377
     35 C25        -6.6186   -2.6245   -4.3189 C.ar      1 <0>        -0.0955
     36 C26        -5.7845   -3.7249   -4.3488 C.ar      1 <0>        -0.1492
     37 N4          3.4570   -2.9747   -0.2184 N.4       1 <0>        -0.4938
     38 C27         4.1029   -3.6829    0.8948 C.3       1 <0>        -0.0553
     39 H5          3.0014   -0.6906   -1.2119 H         1 <0>         0.0532
     40 H6          1.4862   -0.0942   -1.9308 H         1 <0>         0.0898
     41 H7          1.6697   -0.1511   -0.1612 H         1 <0>         0.0761
     42 H8          0.2760   -2.0322   -0.9183 H         1 <0>         0.1165
     43 H9          1.5545   -2.5513   -2.0427 H         1 <0>         0.0980
     44 H10        -0.2428   -3.7041    1.0963 H         1 <0>         0.4130
     45 H11        -0.7258   -5.5348    2.8249 H         1 <0>         0.0861
     46 H12        -2.1318   -5.2491    1.7865 H         1 <0>         0.0808
     47 H13        -0.9099   -7.9776    2.0548 H         1 <0>         0.0664
     48 H14        -2.0525   -7.3637    3.2533 H         1 <0>         0.0832
     49 H15        -3.3501   -8.6085    1.8119 H         1 <0>         0.0878
     50 H16        -3.6209   -6.9350    1.3075 H         1 <0>         0.0796
     51 H17        -3.7969   -9.7289   -0.6993 H         1 <0>         0.0972
     52 H18        -4.6423   -8.1782   -0.3812 H         1 <0>         0.0858
     53 H19        -2.8863   -8.9412   -2.7723 H         1 <0>         0.0960
     54 H20        -4.4668   -8.0901   -2.7699 H         1 <0>         0.0916
     55 H21        -1.9882   -5.1130   -4.4860 H         1 <0>         0.1269
     56 H22        -1.4456   -6.1945   -6.6291 H         1 <0>         0.1314
     57 H23        -3.1364   -7.5599   -7.7840 H         1 <0>         0.1322
     58 H24        -5.3733   -7.8492   -6.7992 H         1 <0>         0.1348
     59 H25        -5.9220   -6.7814   -4.6507 H         1 <0>         0.1301
     60 H26        -4.8368   -3.7603   -1.1015 H         1 <0>         0.1711
     61 H27        -6.3163   -1.7939   -1.0618 H         1 <0>         0.1251
     62 H28        -7.4569   -1.0675   -3.1181 H         1 <0>         0.1241
     63 H29        -7.1206   -2.3035   -5.2197 H         1 <0>         0.1277
     64 H30        -5.6339   -4.2642   -5.2724 H         1 <0>         0.1257
     65 H31         3.6116   -3.4838   -1.0758 H         1 <0>         0.4372
     66 H32         3.7519   -4.7145    0.9215 H         1 <0>         0.1293
     67 H33         5.1838   -3.6704    0.7551 H         1 <0>         0.1328
     68 H34         3.8521   -3.1894    1.8337 H         1 <0>         0.1234
     69 H35         3.8499   -2.0491   -0.3014 H         1 <0>         0.4338
@<TRIPOS>BOND
     1    1    2 1
     2    1   39 1
     3    1   40 1
     4    1   41 1
     5    2    3 1
     6    2   42 1
     7    2   43 1
     8    3    4 1
     9    3    5 1
    10    3   37 1
    11    5    6 2
    12    5    7 am
    13    7    8 1
    14    7   44 1
    15    8    9 1
    16    8   20 1
    17    8   10 1
    18   10   11 1
    19   10   45 1
    20   10   46 1
    21   11   12 1
    22   11   47 1
    23   11   48 1
    24   12   13 1
    25   12   49 1
    26   12   50 1
    27   13   14 1
    28   13   19 1
    29   13   15 1
    30   15   16 1
    31   15   51 1
    32   15   52 1
    33   16   17 1
    34   16   53 1
    35   16   54 1
    36   17   18 1
    37   17   19 1
    38   17   22 1
    39   19   20 am
    40   20   21 2
    41   22   23 2
    42   22   24 am
    43   24   25 1
    44   24   31 1
    45   25   30 ar
    46   25   26 ar
    47   26   27 ar
    48   26   55 1
    49   27   28 ar
    50   27   56 1
    51   28   29 ar
    52   28   57 1
    53   29   30 ar
    54   29   58 1
    55   30   59 1
    56   31   36 ar
    57   31   32 ar
    58   32   33 ar
    59   32   60 1
    60   33   34 ar
    61   33   61 1
    62   34   35 ar
    63   34   62 1
    64   35   36 ar
    65   35   63 1
    66   36   64 1
    67   37   38 1
    68   37   65 1
    69   37   69 1
    70   38   66 1
    71   38   67 1
    72   38   68 1
@<TRIPOS>MOLECULE
CHEMBL573787
   80    83     0     0     0
SMALL
USER_CHARGES

@<TRIPOS>ATOM
      1 C1         -0.0187    1.5258    0.0104 C.3       1 <0>        -0.1702
      2 C2          0.0021   -0.0041    0.0020 C.3       1 <0>        -0.1422
      3 C3          0.7182   -0.4975   -1.2568 C.3       1 <0>         0.0105
      4 H1          1.7103   -0.0491   -1.3098 H         1 <0>         0.1646
      5 C4          0.8473   -1.9981   -1.2057 C.2       1 <0>         0.5017
      6 O1          0.0734   -2.6948   -1.8275 O.2       1 <0>        -0.4940
      7 N1          1.8227   -2.5659   -0.4690 N.am      1 <0>        -0.6903
      8 C5          1.9479   -4.0218   -0.4195 C.3       1 <0>         0.1502
      9 H2          1.6698   -4.4194   -1.4083 H         1 <0>         0.1311
     10 C6          3.3875   -4.4329   -0.1289 C.3       1 <0>        -0.1101
     11 H3          3.4014   -5.4428    0.2890 H         1 <0>         0.1128
     12 C7          4.0513   -3.4639    0.8436 C.3       1 <0>        -0.1271
     13 C8          3.2649   -3.3608    2.1453 C.3       1 <0>        -0.1379
     14 C9          2.6383   -4.7114    2.4861 C.3       1 <0>         0.1263
     15 H4          3.2846   -5.5181    2.1349 H         1 <0>         0.0905
     16 C10         2.4620   -4.8188    4.0106 C.3       1 <0>        -0.1269
     17 C11         1.1277   -5.5699    4.1817 C.3       1 <0>        -0.1276
     18 C12         0.3420   -5.2440    2.9009 C.3       1 <0>         0.1179
     19 H5         -0.2003   -6.1291    2.5612 H         1 <0>         0.1096
     20 N2          1.3122   -4.8256    1.8736 N.am      1 <0>        -0.5809
     21 C13         0.9940   -4.5869    0.5900 C.2       1 <0>         0.5248
     22 O2         -0.1354   -4.8528    0.2235 O.2       1 <0>        -0.5081
     23 C14        -0.6347   -4.1264    3.1785 C.2       1 <0>         0.5204
     24 O3         -0.5422   -3.0770    2.5776 O.2       1 <0>        -0.5287
     25 N3         -1.6093   -4.2952    4.0940 N.am      1 <0>        -0.7203
     26 C15        -2.5570   -3.2109    4.3633 C.3       1 <0>         0.2371
     27 C16        -3.6840   -3.2692    3.3647 C.ar      1 <0>        -0.0899
     28 C17        -4.2126   -4.4901    2.9894 C.ar      1 <0>        -0.0990
     29 C18        -5.2464   -4.5436    2.0733 C.ar      1 <0>        -0.1159
     30 C19        -5.7521   -3.3761    1.5329 C.ar      1 <0>        -0.1159
     31 C20        -5.2242   -2.1550    1.9088 C.ar      1 <0>        -0.1204
     32 C21        -4.1932   -2.1013    2.8281 C.ar      1 <0>        -0.1050
     33 C22        -3.1117   -3.3630    5.7562 C.ar      1 <0>        -0.0950
     34 C23        -3.4244   -4.6187    6.2424 C.ar      1 <0>        -0.1123
     35 C24        -3.9332   -4.7582    7.5201 C.ar      1 <0>        -0.1119
     36 C25        -4.1289   -3.6421    8.3118 C.ar      1 <0>        -0.1120
     37 C26        -3.8153   -2.3865    7.8260 C.ar      1 <0>        -0.1127
     38 C27        -3.3024   -2.2473    6.5499 C.ar      1 <0>        -0.1046
     39 C28         4.1804   -4.4439   -1.4441 C.3       1 <0>         0.1185
     40 N4          5.5318   -4.9518   -1.1954 N.pl3     1 <0>        -1.1204
     41 S1          6.4851   -5.4251   -2.4641 S.o2      1 <0>         2.6118
     42 O4          7.6916   -5.8749   -1.8630 O.2       1 <0>        -0.9488
     43 O5          5.6730   -6.3177   -3.2145 O.2       1 <0>        -0.9507
     44 C29         6.7868   -3.9081   -3.4118 C.3       1 <0>        -0.6732
     45 N5         -0.0570   -0.1128   -2.4438 N.4       1 <0>        -0.6218
     46 H6          1.0039    1.9031    0.0027 H         1 <0>         0.0749
     47 H7         -0.5459    1.8868   -0.8726 H         1 <0>         0.0552
     48 H8         -0.5289    1.8773    0.9072 H         1 <0>         0.0890
     49 H9          0.5293   -0.3651    0.8851 H         1 <0>         0.1177
     50 H10        -1.0205   -0.3814    0.0098 H         1 <0>         0.0995
     51 H11         2.4416   -2.0086    0.0283 H         1 <0>         0.4115
     52 H12         5.0618   -3.8273    1.0713 H         1 <0>         0.0863
     53 H13         4.1448   -2.4779    0.3880 H         1 <0>         0.0729
     54 H14         3.9408   -3.0664    2.9532 H         1 <0>         0.0900
     55 H15         2.4829   -2.6087    2.0531 H         1 <0>         0.0744
     56 H16         3.2775   -5.3915    4.4502 H         1 <0>         0.0954
     57 H17         2.4033   -3.8293    4.4604 H         1 <0>         0.0813
     58 H18         1.3017   -6.6412    4.2619 H         1 <0>         0.0949
     59 H19         0.5973   -5.2013    5.0597 H         1 <0>         0.0913
     60 H20        -1.6833   -5.1345    4.5746 H         1 <0>         0.4018
     61 H21        -2.0456   -2.2520    4.2786 H         1 <0>         0.1011
     62 H22        -3.8175   -5.4023    3.4116 H         1 <0>         0.1153
     63 H23        -5.6588   -5.4975    1.7796 H         1 <0>         0.1233
     64 H24        -6.5593   -3.4179    0.8166 H         1 <0>         0.1226
     65 H25        -5.6190   -1.2429    1.4863 H         1 <0>         0.1212
     66 H26        -3.7832   -1.1472    3.1246 H         1 <0>         0.1176
     67 H27        -3.2715   -5.4907    5.6238 H         1 <0>         0.1180
     68 H28        -4.1782   -5.7392    7.8996 H         1 <0>         0.1269
     69 H29        -4.5271   -3.7510    9.3098 H         1 <0>         0.1265
     70 H30        -3.9685   -1.5144    8.4445 H         1 <0>         0.1269
     71 H31        -3.0540   -1.2667    6.1717 H         1 <0>         0.1221
     72 H32         3.6776   -5.0873   -2.1661 H         1 <0>         0.0900
     73 H33         4.2405   -3.4304   -1.8407 H         1 <0>         0.0668
     74 H34         5.8683   -5.0108   -0.2875 H         1 <0>         0.4204
     75 H35         7.2915   -3.1784   -2.7786 H         1 <0>         0.1299
     76 H36         7.4139   -4.1368   -4.2736 H         1 <0>         0.1335
     77 H37         5.8363   -3.4977   -3.7528 H         1 <0>         0.1232
     78 H38        -0.1435    0.8919   -2.4780 H         1 <0>         0.4409
     79 H39         0.4152   -0.4382   -3.2739 H         1 <0>         0.4401
     80 H40        -0.9754   -0.5279   -2.3947 H         1 <0>         0.4437
@<TRIPOS>BOND
     1    1    2 1
     2    1   46 1
     3    1   47 1
     4    1   48 1
     5    2    3 1
     6    2   49 1
     7    2   50 1
     8    3    4 1
     9    3    5 1
    10    3   45 1
    11    5    6 2
    12    5    7 am
    13    7    8 1
    14    7   51 1
    15    8    9 1
    16    8   21 1
    17    8   10 1
    18   10   11 1
    19   10   12 1
    20   10   39 1
    21   12   13 1
    22   12   52 1
    23   12   53 1
    24   13   14 1
    25   13   54 1
    26   13   55 1
    27   14   15 1
    28   14   20 1
    29   14   16 1
    30   16   17 1
    31   16   56 1
    32   16   57 1
    33   17   18 1
    34   17   58 1
    35   17   59 1
    36   18   19 1
    37   18   20 1
    38   18   23 1
    39   20   21 am
    40   21   22 2
    41   23   24 2
    42   23   25 am
    43   25   26 1
    44   25   60 1
    45   26   27 1
    46   26   33 1
    47   26   61 1
    48   27   32 ar
    49   27   28 ar
    50   28   29 ar
    51   28   62 1
    52   29   30 ar
    53   29   63 1
    54   30   31 ar
    55   30   64 1
    56   31   32 ar
    57   31   65 1
    58   32   66 1
    59   33   38 ar
    60   33   34 ar
    61   34   35 ar
    62   34   67 1
    63   35   36 ar
    64   35   68 1
    65   36   37 ar
    66   36   69 1
    67   37   38 ar
    68   37   70 1
    69   38   71 1
    70   39   40 1
    71   39   72 1
    72   39   73 1
    73   40   41 1
    74   40   74 1
    75   41   42 2
    76   41   43 2
    77   41   44 1
    78   44   75 1
    79   44   76 1
    80   44   77 1
    81   45   78 1
    82   45   79 1
    83   45   80 1
@<TRIPOS>MOLECULE
CHEMBL584394
   88    92     0     0     0
SMALL
USER_CHARGES

@<TRIPOS>ATOM
      1 C1         -0.0187    1.5258    0.0104 C.3       1 <0>        -0.1719
      2 C2          0.0021   -0.0041    0.0020 C.3       1 <0>        -0.1433
      3 C3         -1.4333   -0.5336    0.0129 C.3       1 <0>         0.0126
      4 H1         -1.9862   -0.1019   -0.8214 H         1 <0>         0.1648
      5 C4         -1.4159   -2.0348   -0.1192 C.2       1 <0>         0.5051
      6 O1         -1.5501   -2.7316    0.8643 O.2       1 <0>        -0.4852
      7 N1         -1.2512   -2.6028   -1.3302 N.am      1 <0>        -0.7001
      8 C5         -1.2344   -4.0592   -1.4584 C.3       1 <0>         0.1570
      9 H2         -1.9415   -4.4722   -0.7218 H         1 <0>         0.1345
     10 C6         -1.6918   -4.4868   -2.8490 C.3       1 <0>        -0.1296
     11 H3         -1.3116   -5.4883   -3.0665 H         1 <0>         0.1239
     12 C7         -1.2059   -3.5091   -3.9135 C.3       1 <0>        -0.1398
     13 C8          0.3115   -3.3677   -3.8835 C.3       1 <0>        -0.1407
     14 C9          0.9536   -4.7013   -3.5066 C.3       1 <0>         0.1282
     15 H4          0.3468   -5.5249   -3.8879 H         1 <0>         0.0849
     16 C10         2.3644   -4.7755   -4.1157 C.3       1 <0>        -0.1284
     17 C11         3.1981   -5.5021   -3.0430 C.3       1 <0>        -0.1290
     18 C12         2.4736   -5.1897   -1.7234 C.3       1 <0>         0.1171
     19 H5          2.4728   -6.0728   -1.0808 H         1 <0>         0.1125
     20 N2          1.0888   -4.8071   -2.0515 N.am      1 <0>        -0.5811
     21 C13         0.1305   -4.5892   -1.1350 C.2       1 <0>         0.5176
     22 O2          0.3843   -4.8447    0.0273 O.2       1 <0>        -0.4945
     23 C14         3.1740   -4.0517   -1.0202 C.2       1 <0>         0.5195
     24 O3          2.5812   -3.0160   -0.8035 O.2       1 <0>        -0.5327
     25 N3          4.4579   -4.1869   -0.6333 N.am      1 <0>        -0.7165
     26 C15         5.1375   -3.0828    0.0490 C.3       1 <0>         0.2388
     27 C16         4.8375   -3.1435    1.5246 C.ar      1 <0>        -0.0920
     28 C17         4.8074   -4.3633    2.1742 C.ar      1 <0>        -0.1003
     29 C18         4.5322   -4.4190    3.5277 C.ar      1 <0>        -0.1157
     30 C19         4.2876   -3.2547    4.2318 C.ar      1 <0>        -0.1144
     31 C20         4.3187   -2.0348    3.5824 C.ar      1 <0>        -0.1195
     32 C21         4.5981   -1.9788    2.2297 C.ar      1 <0>        -0.1051
     33 C22         6.6245   -3.1984   -0.1665 C.ar      1 <0>        -0.0992
     34 C23         7.2332   -4.4391   -0.1343 C.ar      1 <0>        -0.1132
     35 C24         8.5973   -4.5451   -0.3319 C.ar      1 <0>        -0.1112
     36 C25         9.3525   -3.4104   -0.5622 C.ar      1 <0>        -0.1093
     37 C26         8.7437   -2.1698   -0.5953 C.ar      1 <0>        -0.1113
     38 C27         7.3790   -2.0642   -0.4019 C.ar      1 <0>        -0.1043
     39 C28        -3.2266   -4.5365   -2.8781 C.3       1 <0>        -0.0091
     40 N4         -3.6750   -5.0617   -4.1746 N.4       1 <0>        -0.5099
     41 C29        -5.1430   -5.1092   -4.2024 C.3       1 <0>         0.0485
     42 C30        -5.6030   -5.6480   -5.5325 C.ar      1 <0>        -0.1753
     43 C31        -5.8362   -4.7832   -6.5854 C.ar      1 <0>        -0.0935
     44 C32        -6.2582   -5.2774   -7.8054 C.ar      1 <0>        -0.1134
     45 C33        -6.4465   -6.6366   -7.9728 C.ar      1 <0>        -0.0770
     46 C34        -6.2125   -7.5016   -6.9202 C.ar      1 <0>        -0.1122
     47 C35        -5.7864   -7.0077   -5.7014 C.ar      1 <0>        -0.0917
     48 N5         -2.0833   -0.1607    1.2764 N.4       1 <0>        -0.6230
     49 H6          1.0039    1.9031    0.0027 H         1 <0>         0.0921
     50 H7         -0.5459    1.8868   -0.8726 H         1 <0>         0.0753
     51 H8         -0.5289    1.8773    0.9072 H         1 <0>         0.0573
     52 H9          0.5123   -0.3556   -0.8948 H         1 <0>         0.1171
     53 H10         0.5293   -0.3651    0.8851 H         1 <0>         0.1014
     54 H11        -1.1439   -2.0455   -2.1168 H         1 <0>         0.4123
     55 H12        -1.5046   -3.8835   -4.9012 H         1 <0>         0.0804
     56 H13        -1.6718   -2.5339   -3.7701 H         1 <0>         0.0850
     57 H14         0.6658   -3.0677   -4.8738 H         1 <0>         0.0991
     58 H15         0.6036   -2.6055   -3.1628 H         1 <0>         0.0838
     59 H16         2.3519   -5.3518   -5.0397 H         1 <0>         0.0974
     60 H17         2.7583   -3.7764   -4.2932 H         1 <0>         0.0848
     61 H18         3.2075   -6.5741   -3.2300 H         1 <0>         0.0968
     62 H19         4.2141   -5.1078   -3.0239 H         1 <0>         0.0956
     63 H20         4.9321   -5.0152   -0.8065 H         1 <0>         0.4029
     64 H21         4.7845   -2.1339   -0.3548 H         1 <0>         0.1012
     65 H22         4.9984   -5.2729    1.6242 H         1 <0>         0.1147
     66 H23         4.5079   -5.3721    4.0351 H         1 <0>         0.1240
     67 H24         4.0720   -3.2983    5.2891 H         1 <0>         0.1239
     68 H25         4.1273   -1.1253    4.1324 H         1 <0>         0.1223
     69 H26         4.6260   -1.0254    1.7231 H         1 <0>         0.1178
     70 H27         6.6432   -5.3255    0.0457 H         1 <0>         0.1168
     71 H28         9.0729   -5.5143   -0.3061 H         1 <0>         0.1278
     72 H29        10.4183   -3.4932   -0.7159 H         1 <0>         0.1283
     73 H30         9.3338   -1.2833   -0.7749 H         1 <0>         0.1284
     74 H31         6.9028   -1.0954   -0.4315 H         1 <0>         0.1221
     75 H32        -3.5843   -5.1863   -2.0794 H         1 <0>         0.1425
     76 H33        -3.6254   -3.5321   -2.7354 H         1 <0>         0.1353
     77 H34        -3.3439   -4.4601   -4.9139 H         1 <0>         0.4264
     78 H35        -5.5007   -5.7591   -3.4038 H         1 <0>         0.1401
     79 H36        -5.5418   -4.1049   -4.0597 H         1 <0>         0.1377
     80 H37        -5.6891   -3.7212   -6.4546 H         1 <0>         0.1298
     81 H38        -6.4411   -4.6016   -8.6278 H         1 <0>         0.1379
     82 H39        -6.7769   -7.0227   -8.9257 H         1 <0>         0.1387
     83 H40        -6.3599   -8.5635   -7.0508 H         1 <0>         0.1386
     84 H41        -5.5999   -7.6839   -4.8801 H         1 <0>         0.1319
     85 H42        -2.0949    0.8443    1.3648 H         1 <0>         0.4447
     86 H43        -3.0299   -0.5100    1.2835 H         1 <0>         0.4394
     87 H44        -3.3059   -5.9914   -4.3067 H         1 <0>         0.4311
     88 H45        -1.5715   -0.5604    2.0487 H         1 <0>         0.4457
@<TRIPOS>BOND
     1    1    2 1
     2    1   49 1
     3    1   50 1
     4    1   51 1
     5    2    3 1
     6    2   52 1
     7    2   53 1
     8    3    4 1
     9    3    5 1
    10    3   48 1
    11    5    6 2
    12    5    7 am
    13    7    8 1
    14    7   54 1
    15    8    9 1
    16    8   21 1
    17    8   10 1
    18   10   11 1
    19   10   12 1
    20   10   39 1
    21   12   13 1
    22   12   55 1
    23   12   56 1
    24   13   14 1
    25   13   57 1
    26   13   58 1
    27   14   15 1
    28   14   20 1
    29   14   16 1
    30   16   17 1
    31   16   59 1
    32   16   60 1
    33   17   18 1
    34   17   61 1
    35   17   62 1
    36   18   19 1
    37   18   20 1
    38   18   23 1
    39   20   21 am
    40   21   22 2
    41   23   24 2
    42   23   25 am
    43   25   26 1
    44   25   63 1
    45   26   27 1
    46   26   33 1
    47   26   64 1
    48   27   32 ar
    49   27   28 ar
    50   28   29 ar
    51   28   65 1
    52   29   30 ar
    53   29   66 1
    54   30   31 ar
    55   30   67 1
    56   31   32 ar
    57   31   68 1
    58   32   69 1
    59   33   38 ar
    60   33   34 ar
    61   34   35 ar
    62   34   70 1
    63   35   36 ar
    64   35   71 1
    65   36   37 ar
    66   36   72 1
    67   37   38 ar
    68   37   73 1
    69   38   74 1
    70   39   40 1
    71   39   75 1
    72   39   76 1
    73   40   41 1
    74   40   77 1
    75   40   87 1
    76   41   42 1
    77   41   78 1
    78   41   79 1
    79   42   47 ar
    80   42   43 ar
    81   43   44 ar
    82   43   80 1
    83   44   45 ar
    84   44   81 1
    85   45   46 ar
    86   45   82 1
    87   46   47 ar
    88   46   83 1
    89   47   84 1
    90   48   85 1
    91   48   86 1
    92   48   88 1
@<TRIPOS>MOLECULE
CHEMBL584395
   91    95     0     0     0
SMALL
USER_CHARGES

@<TRIPOS>ATOM
      1 C1          0.4895    1.8268    0.8530 C.3       1 <0>        -0.1719
      2 C2          0.4019    0.3117    0.6583 C.3       1 <0>        -0.1432
      3 C3          1.0828   -0.0737   -0.6565 C.3       1 <0>         0.0125
      4 H1          2.1042    0.3068   -0.6618 H         1 <0>         0.1649
      5 C4          1.1053   -1.5747   -0.7893 C.2       1 <0>         0.5053
      6 O1          0.2849   -2.1342   -1.4856 O.2       1 <0>        -0.4863
      7 N1          2.0372   -2.2953   -0.1345 N.am      1 <0>        -0.6997
      8 C5          2.0590   -3.7516   -0.2634 C.3       1 <0>         0.1577
      9 H2          1.7546   -4.0051   -1.2911 H         1 <0>         0.1345
     10 C6          3.4655   -4.2953   -0.0356 C.3       1 <0>        -0.1314
     11 H3          3.4074   -5.3472    0.2561 H         1 <0>         0.1224
     12 C7          4.1950   -3.5013    1.0426 C.3       1 <0>        -0.1389
     13 C8          3.4163   -3.5026    2.3529 C.3       1 <0>        -0.1404
     14 C9          2.6953   -4.8371    2.5315 C.3       1 <0>         0.1291
     15 H4          3.2833   -5.6385    2.0799 H         1 <0>         0.0827
     16 C10         2.5100   -5.1169    4.0329 C.3       1 <0>        -0.1280
     17 C11         1.1257   -5.7875    4.1212 C.3       1 <0>        -0.1282
     18 C12         0.3666   -5.2533    2.8954 C.3       1 <0>         0.1167
     19 H5         -0.2367   -6.0500    2.4546 H         1 <0>         0.1132
     20 N2          1.3652   -4.7822    1.9195 N.am      1 <0>        -0.5804
     21 C13         1.0663   -4.3670    0.6769 C.2       1 <0>         0.5186
     22 O2         -0.0787   -4.5060    0.2892 O.2       1 <0>        -0.4967
     23 C14        -0.5290   -4.1120    3.3142 C.2       1 <0>         0.5196
     24 O3         -0.3617   -3.0063    2.8448 O.2       1 <0>        -0.5324
     25 N3         -1.5142   -4.3220    4.2096 N.am      1 <0>        -0.7162
     26 C15        -2.3830   -3.2147    4.6159 C.3       1 <0>         0.2385
     27 C16        -3.7051   -3.7612    5.0896 C.ar      1 <0>        -0.0995
     28 C17        -3.7425   -4.9080    5.8606 C.ar      1 <0>        -0.1126
     29 C18        -4.9552   -5.4094    6.2952 C.ar      1 <0>        -0.1115
     30 C19        -6.1304   -4.7637    5.9592 C.ar      1 <0>        -0.1092
     31 C20        -6.0929   -3.6165    5.1890 C.ar      1 <0>        -0.1114
     32 C21        -4.8799   -3.1127    4.7580 C.ar      1 <0>        -0.1042
     33 C22        -1.7275   -2.4460    5.7341 C.ar      1 <0>        -0.0908
     34 C23        -1.0464   -3.1207    6.7300 C.ar      1 <0>        -0.1047
     35 C24        -0.4451   -2.4156    7.7558 C.ar      1 <0>        -0.1169
     36 C25        -0.5244   -1.0359    7.7854 C.ar      1 <0>        -0.1146
     37 C26        -1.2047   -0.3611    6.7890 C.ar      1 <0>        -0.1163
     38 C27        -1.8024   -1.0660    5.7609 C.ar      1 <0>        -0.1041
     39 C28         4.2573   -4.2017   -1.3483 C.3       1 <0>        -0.0092
     40 N4          5.5695   -4.8389   -1.1752 N.4       1 <0>        -0.3852
     41 C29         6.3825   -4.6206   -2.3790 C.3       1 <0>        -0.0524
     42 C30         5.3892   -6.2810   -0.9609 C.3       1 <0>         0.0382
     43 C31         6.7232   -6.9149   -0.6615 C.ar      1 <0>        -0.1667
     44 C32         7.5073   -7.3955   -1.6935 C.ar      1 <0>        -0.0948
     45 C33         8.7309   -7.9771   -1.4189 C.ar      1 <0>        -0.1112
     46 C34         9.1706   -8.0777   -0.1122 C.ar      1 <0>        -0.0791
     47 C35         8.3870   -7.5963    0.9198 C.ar      1 <0>        -0.1114
     48 C36         7.1652   -7.0108    0.6448 C.ar      1 <0>        -0.0949
     49 N5          0.3382    0.5064   -1.7820 N.4       1 <0>        -0.6228
     50 H6          1.5362    2.1292    0.8836 H         1 <0>         0.0753
     51 H7         -0.0098    2.3290    0.0244 H         1 <0>         0.0573
     52 H8          0.0044    2.1014    1.7896 H         1 <0>         0.0922
     53 H9          0.9011   -0.1905    1.4869 H         1 <0>         0.1175
     54 H10        -0.6448    0.0093    0.6277 H         1 <0>         0.1008
     55 H11         2.6934   -1.8478    0.4224 H         1 <0>         0.4125
     56 H12         5.1771   -3.9599    1.2168 H         1 <0>         0.0790
     57 H13         4.3586   -2.4762    0.7096 H         1 <0>         0.0857
     58 H14         4.1104   -3.3571    3.1856 H         1 <0>         0.0992
     59 H15         2.6896   -2.6916    2.3587 H         1 <0>         0.0847
     60 H16         3.2823   -5.7949    4.3934 H         1 <0>         0.0970
     61 H17         2.5209   -4.1880    4.6002 H         1 <0>         0.0856
     62 H18         1.2232   -6.8701    4.0691 H         1 <0>         0.0969
     63 H19         0.6216   -5.4922    5.0414 H         1 <0>         0.0942
     64 H20        -1.6479   -5.2064    4.5850 H         1 <0>         0.4029
     65 H21        -2.5474   -2.5514    3.7667 H         1 <0>         0.1001
     66 H22        -2.8244   -5.4124    6.1231 H         1 <0>         0.1168
     67 H23        -4.9845   -6.3057    6.8970 H         1 <0>         0.1280
     68 H24        -7.0780   -5.1559    6.2981 H         1 <0>         0.1285
     69 H25        -7.0111   -3.1122    4.9261 H         1 <0>         0.1282
     70 H26        -4.8504   -2.2143    4.1593 H         1 <0>         0.1215
     71 H27        -0.9844   -4.1987    6.7069 H         1 <0>         0.1146
     72 H28         0.0864   -2.9428    8.5342 H         1 <0>         0.1240
     73 H29        -0.0552   -0.4851    8.5872 H         1 <0>         0.1246
     74 H30        -1.2670    0.7168    6.8123 H         1 <0>         0.1237
     75 H31        -2.3307   -0.5386    4.9804 H         1 <0>         0.1178
     76 H32         3.7082   -4.7102   -2.1408 H         1 <0>         0.1403
     77 H33         4.3945   -3.1541   -1.6159 H         1 <0>         0.1349
     78 H34         6.4238   -3.5543   -2.6011 H         1 <0>         0.1243
     79 H35         7.3917   -4.9956   -2.2088 H         1 <0>         0.1295
     80 H36         5.9353   -5.1499   -3.2204 H         1 <0>         0.1258
     81 H37         4.7137   -6.4418   -0.1207 H         1 <0>         0.1336
     82 H38         4.9661   -6.7316   -1.8587 H         1 <0>         0.1399
     83 H39         7.1637   -7.3170   -2.7144 H         1 <0>         0.1311
     84 H40         9.3431   -8.3532   -2.2252 H         1 <0>         0.1383
     85 H41        10.1263   -8.5327    0.1024 H         1 <0>         0.1383
     86 H42         8.7304   -7.6751    1.9407 H         1 <0>         0.1376
     87 H43         6.5546   -6.6314    1.4507 H         1 <0>         0.1288
     88 H44         0.3232    1.5114   -1.6931 H         1 <0>         0.4447
     89 H45         0.7873    0.2522   -2.6491 H         1 <0>         0.4395
     90 H46         6.0363   -4.4360   -0.3765 H         1 <0>         0.4226
     91 H47        -0.6073    0.1541   -1.7771 H         1 <0>         0.4455
@<TRIPOS>BOND
     1    1    2 1
     2    1   50 1
     3    1   51 1
     4    1   52 1
     5    2    3 1
     6    2   53 1
     7    2   54 1
     8    3    4 1
     9    3    5 1
    10    3   49 1
    11    5    6 2
    12    5    7 am
    13    7    8 1
    14    7   55 1
    15    8    9 1
    16    8   21 1
    17    8   10 1
    18   10   11 1
    19   10   12 1
    20   10   39 1
    21   12   13 1
    22   12   56 1
    23   12   57 1
    24   13   14 1
    25   13   58 1
    26   13   59 1
    27   14   15 1
    28   14   20 1
    29   14   16 1
    30   16   17 1
    31   16   60 1
    32   16   61 1
    33   17   18 1
    34   17   62 1
    35   17   63 1
    36   18   19 1
    37   18   20 1
    38   18   23 1
    39   20   21 am
    40   21   22 2
    41   23   24 2
    42   23   25 am
    43   25   26 1
    44   25   64 1
    45   26   27 1
    46   26   33 1
    47   26   65 1
    48   27   32 ar
    49   27   28 ar
    50   28   29 ar
    51   28   66 1
    52   29   30 ar
    53   29   67 1
    54   30   31 ar
    55   30   68 1
    56   31   32 ar
    57   31   69 1
    58   32   70 1
    59   33   38 ar
    60   33   34 ar
    61   34   35 ar
    62   34   71 1
    63   35   36 ar
    64   35   72 1
    65   36   37 ar
    66   36   73 1
    67   37   38 ar
    68   37   74 1
    69   38   75 1
    70   39   40 1
    71   39   76 1
    72   39   77 1
    73   40   41 1
    74   40   42 1
    75   40   90 1
    76   41   78 1
    77   41   79 1
    78   41   80 1
    79   42   43 1
    80   42   81 1
    81   42   82 1
    82   43   48 ar
    83   43   44 ar
    84   44   45 ar
    85   44   83 1
    86   45   46 ar
    87   45   84 1
    88   46   47 ar
    89   46   85 1
    90   47   48 ar
    91   47   86 1
    92   48   87 1
    93   49   88 1
    94   49   89 1
    95   49   91 1
@<TRIPOS>MOLECULE
CHEMBL573309
   76    79     0     0     0
SMALL
USER_CHARGES

@<TRIPOS>ATOM
      1 C1          0.1675    1.8717   -0.1937 C.3       1 <0>        -0.1706
      2 C2          0.1964    0.3488   -0.0497 C.3       1 <0>        -0.1417
      3 C3          0.7336   -0.2753   -1.3393 C.3       1 <0>         0.0067
      4 H1          1.7030    0.1621   -1.5782 H         1 <0>         0.1610
      5 C4          0.8860   -1.7628   -1.1519 C.2       1 <0>         0.5063
      6 O1          0.0403   -2.5180   -1.5826 O.2       1 <0>        -0.4980
      7 N1          1.9620   -2.2539   -0.5058 N.am      1 <0>        -0.6894
      8 C5          2.1099   -3.6971   -0.3241 C.3       1 <0>         0.1512
      9 H2          1.6998   -4.1946   -1.2170 H         1 <0>         0.1258
     10 C6          3.5807   -4.0803   -0.1990 C.3       1 <0>        -0.1016
     11 H3          3.6652   -5.0413    0.3150 H         1 <0>         0.1077
     12 C7          4.3637   -3.0174    0.5642 C.3       1 <0>        -0.1197
     13 C8          3.7676   -2.7769    1.9463 C.3       1 <0>        -0.1381
     14 C9          3.2111   -4.0827    2.5102 C.3       1 <0>         0.1273
     15 H4          3.8107   -4.9236    2.1566 H         1 <0>         0.0910
     16 C10         3.2527   -4.0302    4.0472 C.3       1 <0>        -0.1270
     17 C11         1.9647   -4.7552    4.4822 C.3       1 <0>        -0.1273
     18 C12         1.0026   -4.5619    3.2985 C.3       1 <0>         0.1180
     19 H5          0.4280   -5.4758    3.1325 H         1 <0>         0.1092
     20 N2          1.8133   -4.2558    2.1066 N.am      1 <0>        -0.5805
     21 C13         1.3145   -4.1511    0.8632 C.2       1 <0>         0.5259
     22 O2          0.1478   -4.4500    0.6897 O.2       1 <0>        -0.5107
     23 C14         0.0618   -3.4184    3.5943 C.2       1 <0>         0.5199
     24 O3          0.0564   -2.4375    2.8810 O.2       1 <0>        -0.5278
     25 N3         -0.7719   -3.4878    4.6510 N.am      1 <0>        -0.7205
     26 C15        -1.6847   -2.3784    4.9380 C.3       1 <0>         0.2367
     27 C16        -2.9406   -2.5368    4.1202 C.ar      1 <0>        -0.0897
     28 C17        -3.5025   -3.7885    3.9519 C.ar      1 <0>        -0.0991
     29 C18        -4.6545   -3.9338    3.2018 C.ar      1 <0>        -0.1162
     30 C19        -5.2448   -2.8272    2.6203 C.ar      1 <0>        -0.1161
     31 C20        -4.6834   -1.5754    2.7894 C.ar      1 <0>        -0.1203
     32 C21        -3.5338   -1.4295    3.5431 C.ar      1 <0>        -0.1048
     33 C22        -2.0356   -2.3829    6.4035 C.ar      1 <0>        -0.0945
     34 C23        -2.2621   -3.5802    7.0563 C.ar      1 <0>        -0.1122
     35 C24        -2.5840   -3.5843    8.4007 C.ar      1 <0>        -0.1121
     36 C25        -2.6790   -2.3912    9.0923 C.ar      1 <0>        -0.1121
     37 C26        -2.4517   -1.1940    8.4397 C.ar      1 <0>        -0.1127
     38 C27        -2.1255   -1.1901    7.0964 C.ar      1 <0>        -0.1045
     39 C28         4.1804   -4.2307   -1.6049 C.3       1 <0>         0.0819
     40 O4          5.5253   -4.7023   -1.5012 O.3       1 <0>        -0.5667
     41 N4         -0.2057   -0.0138   -2.4381 N.4       1 <0>        -0.4940
     42 C29         0.3742   -0.4887   -3.7014 C.3       1 <0>        -0.0542
     43 H6          1.1545    2.2275   -0.4895 H         1 <0>         0.0735
     44 H7         -0.5622    2.1511   -0.9537 H         1 <0>         0.0568
     45 H8         -0.1103    2.3216    0.7595 H         1 <0>         0.0895
     46 H9          0.8435    0.0748    0.7835 H         1 <0>         0.1171
     47 H10        -0.8128   -0.0176    0.1383 H         1 <0>         0.0987
     48 H11         2.6384   -1.6499   -0.1614 H         1 <0>         0.4116
     49 H12         5.4005   -3.3583    0.6830 H         1 <0>         0.0921
     50 H13         4.3806   -2.0845    0.0004 H         1 <0>         0.0653
     51 H14         4.5472   -2.4021    2.6156 H         1 <0>         0.0883
     52 H15         2.9717   -2.0360    1.8883 H         1 <0>         0.0713
     53 H16         4.1286   -4.5566    4.4240 H         1 <0>         0.0954
     54 H17         3.2465   -2.9991    4.3960 H         1 <0>         0.0811
     55 H18         2.1607   -5.8128    4.6474 H         1 <0>         0.0947
     56 H19         1.5592   -4.2955    5.3834 H         1 <0>         0.0912
     57 H20        -0.7677   -4.2723    5.2215 H         1 <0>         0.4016
     58 H21        -1.2016   -1.4352    4.6829 H         1 <0>         0.1012
     59 H22        -3.0413   -4.6530    4.4061 H         1 <0>         0.1153
     60 H23        -5.0931   -4.9118    3.0697 H         1 <0>         0.1231
     61 H24        -6.1445   -2.9408    2.0337 H         1 <0>         0.1225
     62 H25        -5.1444   -0.7110    2.3349 H         1 <0>         0.1212
     63 H26        -3.0972   -0.4510    3.6783 H         1 <0>         0.1179
     64 H27        -2.1879   -4.5123    6.5160 H         1 <0>         0.1180
     65 H28        -2.7616   -4.5196    8.9105 H         1 <0>         0.1268
     66 H29        -2.9312   -2.3944   10.1424 H         1 <0>         0.1265
     67 H30        -2.5262   -0.2618    8.9800 H         1 <0>         0.1269
     68 H31        -1.9443   -0.2550    6.5874 H         1 <0>         0.1222
     69 H32         3.5883   -4.9442   -2.1780 H         1 <0>         0.0520
     70 H33         4.1721   -3.2641   -2.1088 H         1 <0>         0.0457
     71 H34         5.9673   -4.8208   -2.3531 H         1 <0>         0.3889
     72 H35        -1.0725   -0.4994   -2.2623 H         1 <0>         0.4382
     73 H36         1.3576   -0.0399   -3.8412 H         1 <0>         0.1236
     74 H37         0.4710   -1.5740   -3.6715 H         1 <0>         0.1278
     75 H38        -0.2758   -0.2046   -4.5290 H         1 <0>         0.1334
     76 H39        -0.3824    0.9776   -2.5008 H         1 <0>         0.4342
@<TRIPOS>BOND
     1    1    2 1
     2    1   43 1
     3    1   44 1
     4    1   45 1
     5    2    3 1
     6    2   46 1
     7    2   47 1
     8    3    4 1
     9    3    5 1
    10    3   41 1
    11    5    6 2
    12    5    7 am
    13    7    8 1
    14    7   48 1
    15    8    9 1
    16    8   21 1
    17    8   10 1
    18   10   11 1
    19   10   12 1
    20   10   39 1
    21   12   13 1
    22   12   49 1
    23   12   50 1
    24   13   14 1
    25   13   51 1
    26   13   52 1
    27   14   15 1
    28   14   20 1
    29   14   16 1
    30   16   17 1
    31   16   53 1
    32   16   54 1
    33   17   18 1
    34   17   55 1
    35   17   56 1
    36   18   19 1
    37   18   20 1
    38   18   23 1
    39   20   21 am
    40   21   22 2
    41   23   24 2
    42   23   25 am
    43   25   26 1
    44   25   57 1
    45   26   27 1
    46   26   33 1
    47   26   58 1
    48   27   32 ar
    49   27   28 ar
    50   28   29 ar
    51   28   59 1
    52   29   30 ar
    53   29   60 1
    54   30   31 ar
    55   30   61 1
    56   31   32 ar
    57   31   62 1
    58   32   63 1
    59   33   38 ar
    60   33   34 ar
    61   34   35 ar
    62   34   64 1
    63   35   36 ar
    64   35   65 1
    65   36   37 ar
    66   36   66 1
    67   37   38 ar
    68   37   67 1
    69   38   68 1
    70   39   40 1
    71   39   69 1
    72   39   70 1
    73   40   71 1
    74   41   42 1
    75   41   72 1
    76   41   76 1
    77   42   73 1
    78   42   74 1
    79   42   75 1
@<TRIPOS>MOLECULE
CHEMBL578000
   81    84     0     0     0
SMALL
USER_CHARGES

@<TRIPOS>ATOM
      1 C1         -0.0187    1.5258    0.0104 C.3       1 <0>        -0.1720
      2 C2          0.0021   -0.0041    0.0020 C.3       1 <0>        -0.1433
      3 C3         -1.4333   -0.5336    0.0129 C.3       1 <0>         0.0126
      4 H1         -1.9862   -0.1019   -0.8214 H         1 <0>         0.1648
      5 C4         -1.4159   -2.0348   -0.1192 C.2       1 <0>         0.5052
      6 O1         -1.5501   -2.7316    0.8643 O.2       1 <0>        -0.4859
      7 N1         -1.2512   -2.6028   -1.3302 N.am      1 <0>        -0.7002
      8 C5         -1.2344   -4.0592   -1.4584 C.3       1 <0>         0.1567
      9 H2         -1.9415   -4.4722   -0.7218 H         1 <0>         0.1346
     10 C6         -1.6918   -4.4868   -2.8490 C.3       1 <0>        -0.1301
     11 H3         -1.3116   -5.4883   -3.0665 H         1 <0>         0.1241
     12 C7         -1.2059   -3.5091   -3.9135 C.3       1 <0>        -0.1395
     13 C8          0.3115   -3.3677   -3.8835 C.3       1 <0>        -0.1411
     14 C9          0.9536   -4.7013   -3.5066 C.3       1 <0>         0.1286
     15 H4          0.3468   -5.5249   -3.8879 H         1 <0>         0.0848
     16 C10         2.3644   -4.7755   -4.1157 C.3       1 <0>        -0.1283
     17 C11         3.1981   -5.5021   -3.0430 C.3       1 <0>        -0.1282
     18 C12         2.4736   -5.1897   -1.7234 C.3       1 <0>         0.1166
     19 H5          2.4728   -6.0728   -1.0808 H         1 <0>         0.1133
     20 N2          1.0888   -4.8071   -2.0515 N.am      1 <0>        -0.5805
     21 C13         0.1305   -4.5892   -1.1350 C.2       1 <0>         0.5180
     22 O2          0.3843   -4.8447    0.0273 O.2       1 <0>        -0.4968
     23 C14         3.1740   -4.0517   -1.0202 C.2       1 <0>         0.5197
     24 O3          2.5812   -3.0160   -0.8035 O.2       1 <0>        -0.5330
     25 N3          4.4579   -4.1869   -0.6333 N.am      1 <0>        -0.7160
     26 C15         5.1375   -3.0828    0.0490 C.3       1 <0>         0.2385
     27 C16         6.2597   -3.6289    0.8936 C.ar      1 <0>        -0.0996
     28 C17         7.0508   -4.6553    0.4122 C.ar      1 <0>        -0.1126
     29 C18         8.0802   -5.1562    1.1869 C.ar      1 <0>        -0.1114
     30 C19         8.3189   -4.6305    2.4429 C.ar      1 <0>        -0.1091
     31 C20         7.5284   -3.6036    2.9240 C.ar      1 <0>        -0.1114
     32 C21         6.5017   -3.0997    2.1475 C.ar      1 <0>        -0.1043
     33 C22         5.6974   -2.1286   -0.9742 C.ar      1 <0>        -0.0910
     34 C23         6.2767   -2.6168   -2.1305 C.ar      1 <0>        -0.1047
     35 C24         6.7903   -1.7414   -3.0690 C.ar      1 <0>        -0.1169
     36 C25         6.7241   -0.3779   -2.8516 C.ar      1 <0>        -0.1146
     37 C26         6.1440    0.1103   -1.6957 C.ar      1 <0>        -0.1165
     38 C27         5.6266   -0.7649   -0.7591 C.ar      1 <0>        -0.1042
     39 C28        -3.2266   -4.5365   -2.8781 C.3       1 <0>        -0.0080
     40 N4         -3.6750   -5.0617   -4.1746 N.4       1 <0>        -0.5113
     41 C29        -5.1430   -5.1092   -4.2024 C.3       1 <0>        -0.0098
     42 C30        -5.6100   -5.6563   -5.5528 C.3       1 <0>        -0.1927
     43 N5         -2.0833   -0.1607    1.2764 N.4       1 <0>        -0.6229
     44 H6          1.0039    1.9031    0.0027 H         1 <0>         0.0924
     45 H7         -0.5459    1.8868   -0.8726 H         1 <0>         0.0753
     46 H8         -0.5289    1.8773    0.9072 H         1 <0>         0.0574
     47 H9          0.5123   -0.3556   -0.8948 H         1 <0>         0.1175
     48 H10         0.5293   -0.3651    0.8851 H         1 <0>         0.1009
     49 H11        -1.1439   -2.0455   -2.1168 H         1 <0>         0.4125
     50 H12        -1.5046   -3.8835   -4.9012 H         1 <0>         0.0804
     51 H13        -1.6718   -2.5339   -3.7701 H         1 <0>         0.0847
     52 H14         0.6658   -3.0677   -4.8738 H         1 <0>         0.0992
     53 H15         0.6036   -2.6055   -3.1628 H         1 <0>         0.0841
     54 H16         2.3519   -5.3518   -5.0397 H         1 <0>         0.0974
     55 H17         2.7583   -3.7764   -4.2932 H         1 <0>         0.0852
     56 H18         3.2075   -6.5741   -3.2300 H         1 <0>         0.0971
     57 H19         4.2141   -5.1078   -3.0239 H         1 <0>         0.0942
     58 H20         4.9321   -5.0152   -0.8065 H         1 <0>         0.4030
     59 H21         4.4264   -2.5566    0.6858 H         1 <0>         0.1001
     60 H22         6.8643   -5.0660   -0.5691 H         1 <0>         0.1168
     61 H23         8.6978   -5.9585    0.8110 H         1 <0>         0.1281
     62 H24         9.1227   -5.0224    3.0485 H         1 <0>         0.1285
     63 H25         7.7147   -3.1931    3.9054 H         1 <0>         0.1283
     64 H26         5.8865   -2.2949    2.5219 H         1 <0>         0.1215
     65 H27         6.3284   -3.6821   -2.3004 H         1 <0>         0.1147
     66 H28         7.2435   -2.1229   -3.9721 H         1 <0>         0.1241
     67 H29         7.1260    0.3059   -3.5846 H         1 <0>         0.1247
     68 H30         6.0926    1.1756   -1.5257 H         1 <0>         0.1237
     69 H31         5.1700   -0.3833    0.1422 H         1 <0>         0.1178
     70 H32        -3.5843   -5.1863   -2.0794 H         1 <0>         0.1419
     71 H33        -3.6254   -3.5321   -2.7354 H         1 <0>         0.1346
     72 H34        -3.3439   -4.4601   -4.9139 H         1 <0>         0.4271
     73 H35        -5.5007   -5.7591   -3.4038 H         1 <0>         0.1341
     74 H36        -5.5418   -4.1049   -4.0597 H         1 <0>         0.1313
     75 H37        -6.6993   -5.6915   -5.5735 H         1 <0>         0.1114
     76 H38        -5.2523   -5.0064   -6.3515 H         1 <0>         0.0822
     77 H39        -5.2112   -6.6606   -5.6955 H         1 <0>         0.0839
     78 H40        -2.0949    0.8443    1.3648 H         1 <0>         0.4448
     79 H41        -3.0299   -0.5100    1.2835 H         1 <0>         0.4395
     80 H42        -3.3059   -5.9914   -4.3067 H         1 <0>         0.4320
     81 H43        -1.5715   -0.5604    2.0487 H         1 <0>         0.4456
@<TRIPOS>BOND
     1    1    2 1
     2    1   44 1
     3    1   45 1
     4    1   46 1
     5    2    3 1
     6    2   47 1
     7    2   48 1
     8    3    4 1
     9    3    5 1
    10    3   43 1
    11    5    6 2
    12    5    7 am
    13    7    8 1
    14    7   49 1
    15    8    9 1
    16    8   21 1
    17    8   10 1
    18   10   11 1
    19   10   12 1
    20   10   39 1
    21   12   13 1
    22   12   50 1
    23   12   51 1
    24   13   14 1
    25   13   52 1
    26   13   53 1
    27   14   15 1
    28   14   20 1
    29   14   16 1
    30   16   17 1
    31   16   54 1
    32   16   55 1
    33   17   18 1
    34   17   56 1
    35   17   57 1
    36   18   19 1
    37   18   20 1
    38   18   23 1
    39   20   21 am
    40   21   22 2
    41   23   24 2
    42   23   25 am
    43   25   26 1
    44   25   58 1
    45   26   27 1
    46   26   33 1
    47   26   59 1
    48   27   32 ar
    49   27   28 ar
    50   28   29 ar
    51   28   60 1
    52   29   30 ar
    53   29   61 1
    54   30   31 ar
    55   30   62 1
    56   31   32 ar
    57   31   63 1
    58   32   64 1
    59   33   38 ar
    60   33   34 ar
    61   34   35 ar
    62   34   65 1
    63   35   36 ar
    64   35   66 1
    65   36   37 ar
    66   36   67 1
    67   37   38 ar
    68   37   68 1
    69   38   69 1
    70   39   40 1
    71   39   70 1
    72   39   71 1
    73   40   41 1
    74   40   72 1
    75   40   80 1
    76   41   42 1
    77   41   73 1
    78   41   74 1
    79   42   75 1
    80   42   76 1
    81   42   77 1
    82   43   78 1
    83   43   79 1
    84   43   81 1
@<TRIPOS>MOLECULE
CHEMBL486772
   66    69     0     0     0
SMALL
USER_CHARGES

@<TRIPOS>ATOM
      1 C1         -0.0187    1.5258    0.0104 C.3       1 <0>        -0.1772
      2 C2          0.0021   -0.0041    0.0020 C.3       1 <0>         0.0119
      3 H1          0.5123   -0.3556   -0.8948 H         1 <0>         0.1643
      4 C3          0.7309   -0.5033    1.2229 C.2       1 <0>         0.5132
      5 O1          0.1049   -0.8912    2.1865 O.2       1 <0>        -0.5166
      6 N1          2.0785   -0.5187    1.2440 N.am      1 <0>        -0.6815
      7 C4          2.7870   -1.0040    2.4308 C.3       1 <0>         0.1541
      8 H2          2.2161   -1.8195    2.8748 H         1 <0>         0.1202
      9 C5          4.1443   -1.5245    2.0140 C.3       1 <0>        -0.1294
     10 C6          4.8636   -2.2416    3.1250 C.3       1 <0>        -0.1172
     11 C7          5.5422   -1.3467    4.1116 C.3       1 <0>        -0.1364
     12 C8          4.5899   -0.6883    5.1000 C.3       1 <0>         0.1273
     13 H3          4.0029   -1.4461    5.6187 H         1 <0>         0.0878
     14 C9          5.4579    0.1031    6.1119 C.3       1 <0>        -0.1287
     15 C10         4.5435    1.2917    6.4900 C.3       1 <0>        -0.1277
     16 C11         3.7969    1.5712    5.1723 C.3       1 <0>         0.1185
     17 H4          2.7954    1.9452    5.3850 H         1 <0>         0.1131
     18 N2          3.7019    0.2768    4.4393 N.am      1 <0>        -0.5671
     19 C12         2.8930    0.1033    3.4161 C.2       1 <0>         0.5236
     20 O2          2.0876    0.9955    3.2543 O.2       1 <0>        -0.5568
     21 C13         4.5591    2.5819    4.3547 C.2       1 <0>         0.5191
     22 O3          4.9815    2.2807    3.2584 O.2       1 <0>        -0.5231
     23 N3          4.7715    3.8206    4.8417 N.am      1 <0>        -0.7201
     24 C14         5.5125    4.8031    4.0468 C.3       1 <0>         0.2354
     25 C15         5.1110    6.1939    4.4659 C.ar      1 <0>        -0.0927
     26 C16         4.9149    6.4832    5.8033 C.ar      1 <0>        -0.1118
     27 C17         4.5467    7.7589    6.1877 C.ar      1 <0>        -0.1131
     28 C18         4.3750    8.7455    5.2347 C.ar      1 <0>        -0.1133
     29 C19         4.5719    8.4564    3.8974 C.ar      1 <0>        -0.1132
     30 C20         4.9444    7.1817    3.5134 C.ar      1 <0>        -0.1047
     31 C21         6.9912    4.6181    4.2709 C.ar      1 <0>        -0.0916
     32 C22         7.4680    4.3314    5.5363 C.ar      1 <0>        -0.1042
     33 C23         8.8244    4.1617    5.7419 C.ar      1 <0>        -0.1186
     34 C24         9.7040    4.2783    4.6819 C.ar      1 <0>        -0.1155
     35 C25         9.2271    4.5641    3.4162 C.ar      1 <0>        -0.1162
     36 C26         7.8703    4.7295    3.2099 C.ar      1 <0>        -0.1022
     37 N4         -1.3761   -0.5125    0.0124 N.4       1 <0>        -0.6211
     38 H5          1.0039    1.9031    0.0027 H         1 <0>         0.1118
     39 H6         -0.5459    1.8868   -0.8726 H         1 <0>         0.0972
     40 H7         -0.5289    1.8773    0.9072 H         1 <0>         0.0917
     41 H8          2.5791   -0.2084    0.4733 H         1 <0>         0.4134
     42 H9          4.0151   -2.2120    1.1781 H         1 <0>         0.0850
     43 H10         4.7561   -0.6850    1.6839 H         1 <0>         0.0815
     44 H11         4.1425   -2.8598    3.6597 H         1 <0>         0.0663
     45 H12         5.6132   -2.8979    2.6828 H         1 <0>         0.0824
     46 H13         6.2718   -1.9336    4.6695 H         1 <0>         0.0867
     47 H14         6.0722   -0.5658    3.5661 H         1 <0>         0.0765
     48 H15         5.6817   -0.5059    6.9878 H         1 <0>         0.0957
     49 H16         6.3752    0.4560    5.6409 H         1 <0>         0.0841
     50 H17         3.8455    1.0078    7.2776 H         1 <0>         0.0947
     51 H18         5.1363    2.1559    6.7898 H         1 <0>         0.0921
     52 H19         4.4336    4.0615    5.7184 H         1 <0>         0.4008
     53 H20         5.2846    4.6620    2.9903 H         1 <0>         0.1016
     54 H21         5.0490    5.7125    6.5479 H         1 <0>         0.1181
     55 H22         4.3928    7.9848    7.2326 H         1 <0>         0.1264
     56 H23         4.0866    9.7420    5.5350 H         1 <0>         0.1260
     57 H24         4.4375    9.2270    3.1528 H         1 <0>         0.1265
     58 H25         5.1019    6.9568    2.4688 H         1 <0>         0.1230
     59 H26         6.7808    4.2404    6.3645 H         1 <0>         0.1146
     60 H27         9.1969    3.9385    6.7307 H         1 <0>         0.1230
     61 H28        10.7638    4.1464    4.8426 H         1 <0>         0.1235
     62 H29         9.9143    4.6555    2.5881 H         1 <0>         0.1240
     63 H30         7.4974    4.9491    2.2204 H         1 <0>         0.1199
     64 H31        -1.8484   -0.1871    0.8426 H         1 <0>         0.4427
     65 H32        -1.8641   -0.1783   -0.8050 H         1 <0>         0.4428
     66 H33        -1.3624   -1.5214    0.0069 H         1 <0>         0.4396
@<TRIPOS>BOND
     1    1    2 1
     2    1   38 1
     3    1   39 1
     4    1   40 1
     5    2    3 1
     6    2    4 1
     7    2   37 1
     8    4    5 2
     9    4    6 am
    10    6    7 1
    11    6   41 1
    12    7    8 1
    13    7   19 1
    14    7    9 1
    15    9   10 1
    16    9   42 1
    17    9   43 1
    18   10   11 1
    19   10   44 1
    20   10   45 1
    21   11   12 1
    22   11   46 1
    23   11   47 1
    24   12   13 1
    25   12   18 1
    26   12   14 1
    27   14   15 1
    28   14   48 1
    29   14   49 1
    30   15   16 1
    31   15   50 1
    32   15   51 1
    33   16   17 1
    34   16   18 1
    35   16   21 1
    36   18   19 am
    37   19   20 2
    38   21   22 2
    39   21   23 am
    40   23   24 1
    41   23   52 1
    42   24   25 1
    43   24   31 1
    44   24   53 1
    45   25   30 ar
    46   25   26 ar
    47   26   27 ar
    48   26   54 1
    49   27   28 ar
    50   27   55 1
    51   28   29 ar
    52   28   56 1
    53   29   30 ar
    54   29   57 1
    55   30   58 1
    56   31   36 ar
    57   31   32 ar
    58   32   33 ar
    59   32   59 1
    60   33   34 ar
    61   33   60 1
    62   34   35 ar
    63   34   61 1
    64   35   36 ar
    65   35   62 1
    66   36   63 1
    67   37   64 1
    68   37   65 1
    69   37   66 1
@<TRIPOS>MOLECULE
CHEMBL517406
   71    74     0     0     0
SMALL
USER_CHARGES

@<TRIPOS>ATOM
      1 C1          0.2426    2.9311    2.2558 C.3       1 <0>        -0.1825
      2 C2         -0.1621    1.6239    1.5716 C.3       1 <0>         0.0048
      3 H1          0.0202    1.7032    0.4999 H         1 <0>         0.1670
      4 C3          0.6515    0.4883    2.1369 C.2       1 <0>         0.5054
      5 O1          0.0970   -0.4420    2.6829 O.2       1 <0>        -0.5196
      6 N1          1.9954    0.5064    2.0356 N.am      1 <0>        -0.6834
      7 C4          2.7863   -0.5976    2.5851 C.3       1 <0>         0.1387
      8 H2          2.3107   -0.9685    3.4930 H         1 <0>         0.1159
      9 C5          4.1744   -0.1085    2.9089 C.2       1 <0>         0.5284
     10 O2          4.7111    0.7107    2.1934 O.2       1 <0>        -0.5168
     11 N2          4.8196   -0.5814    3.9937 N.am      1 <0>        -0.6019
     12 C6          4.3312   -1.6482    4.8854 C.3       1 <0>         0.0877
     13 C7          5.0163   -1.3700    6.2454 C.3       1 <0>        -0.1295
     14 C8          6.4159   -0.8733    5.8056 C.3       1 <0>        -0.0989
     15 H3          6.9050   -0.2532    6.5568 H         1 <0>         0.1096
     16 C9          6.1283   -0.1226    4.4782 C.3       1 <0>         0.1318
     17 H4          6.1294    0.9562    4.6342 H         1 <0>         0.0915
     18 C10         7.2195   -0.5551    3.4844 C.3       1 <0>         0.1437
     19 H5          6.7668   -1.0531    2.6270 H         1 <0>         0.0971
     20 C11         8.1425   -1.5350    4.2368 C.3       1 <0>        -0.1372
     21 C12         7.2615   -2.0990    5.3874 C.3       1 <0>        -0.1197
     22 N3          7.9836    0.6129    3.0394 N.am      1 <0>        -0.7185
     23 C13         8.6176    0.5903    1.8503 C.2       1 <0>         0.5962
     24 O3          8.5554   -0.4000    1.1465 O.2       1 <0>        -0.5278
     25 C14         9.3847    1.7630    1.4035 C.2       1 <0>        -0.2283
     26 C15         9.5554    2.9360    2.0712 C.2       1 <0>         0.0671
     27 O4         10.3166    3.7647    1.3471 O.3       1 <0>        -0.1806
     28 C16        10.6865    3.1981    0.1800 C.ar      1 <0>         0.0460
     29 C17        10.1346    1.9092    0.1399 C.ar      1 <0>        -0.0945
     30 C18        10.3588    1.0840   -0.9568 C.ar      1 <0>        -0.0628
     31 C19        11.1304    1.5384   -2.0054 C.ar      1 <0>        -0.1290
     32 C20        11.6802    2.8106   -1.9666 C.ar      1 <0>        -0.0888
     33 C21        11.4576    3.6401   -0.8878 C.ar      1 <0>        -0.1045
     34 C22         2.8705   -1.7264    1.5558 C.3       1 <0>        -0.0696
     35 C23         3.4257   -1.1767    0.2403 C.3       1 <0>        -0.1470
     36 C24         3.7958   -2.8265    2.0798 C.3       1 <0>        -0.1544
     37 C25         1.4742   -2.3049    1.3179 C.3       1 <0>        -0.1310
     38 N4         -1.5893    1.3688    1.8080 N.4       1 <0>        -0.4940
     39 C26        -2.3884    2.4135    1.1537 C.3       1 <0>        -0.0504
     40 H6          1.3016    3.1204    2.0804 H         1 <0>         0.1108
     41 H7         -0.3459    3.7525    1.8470 H         1 <0>         0.1000
     42 H8          0.0603    2.8518    3.3276 H         1 <0>         0.0904
     43 H9          2.4389    1.2503    1.5989 H         1 <0>         0.4179
     44 H10         3.2475   -1.5910    4.9875 H         1 <0>         0.0803
     45 H11         4.6263   -2.6259    4.5046 H         1 <0>         0.0840
     46 H12         4.4844   -0.5956    6.7980 H         1 <0>         0.0790
     47 H13         5.0950   -2.2830    6.8355 H         1 <0>         0.0947
     48 H14         8.4729   -2.3339    3.5730 H         1 <0>         0.0782
     49 H15         8.9991   -1.0069    4.6556 H         1 <0>         0.0758
     50 H16         7.8699   -2.4503    6.2209 H         1 <0>         0.0818
     51 H17         6.6227   -2.8981    5.0111 H         1 <0>         0.0733
     52 H18         8.0331    1.4026    3.6005 H         1 <0>         0.3959
     53 H19         9.1387    3.1642    3.0411 H         1 <0>         0.2130
     54 H20         9.9313    0.0927   -0.9870 H         1 <0>         0.1364
     55 H21        11.3074    0.9013   -2.8592 H         1 <0>         0.1343
     56 H22        12.2838    3.1576   -2.7922 H         1 <0>         0.1399
     57 H23        11.8922    4.6286   -0.8678 H         1 <0>         0.1363
     58 H24         4.4205   -0.7646    0.4098 H         1 <0>         0.0695
     59 H25         3.4857   -1.9809   -0.4930 H         1 <0>         0.0646
     60 H26         2.7665   -0.3930   -0.1330 H         1 <0>         0.0507
     61 H27         3.4477   -3.1587    3.0578 H         1 <0>         0.0642
     62 H28         3.7890   -3.6677    1.3867 H         1 <0>         0.0727
     63 H29         4.8099   -2.4367    2.1682 H         1 <0>         0.0614
     64 H30         0.8150   -1.5212    0.9445 H         1 <0>         0.0467
     65 H31         1.5342   -3.1091    0.5845 H         1 <0>         0.0619
     66 H32         1.0786   -2.6965    2.2550 H         1 <0>         0.0653
     67 H33        -1.8375    0.4678    1.4277 H         1 <0>         0.4377
     68 H34        -2.1203    3.3868    1.5646 H         1 <0>         0.1274
     69 H35        -2.1903    2.4045    0.0818 H         1 <0>         0.1268
     70 H36        -3.4474    2.2242    1.3291 H         1 <0>         0.1339
     71 H37        -1.7726    1.3771    2.8002 H         1 <0>         0.4347
@<TRIPOS>BOND
     1    1    2 1
     2    1   40 1
     3    1   41 1
     4    1   42 1
     5    2    3 1
     6    2    4 1
     7    2   38 1
     8    4    5 2
     9    4    6 am
    10    6    7 1
    11    6   43 1
    12    7    8 1
    13    7    9 1
    14    7   34 1
    15    9   10 2
    16    9   11 am
    17   11   16 1
    18   11   12 1
    19   12   13 1
    20   12   44 1
    21   12   45 1
    22   13   14 1
    23   13   46 1
    24   13   47 1
    25   14   15 1
    26   14   21 1
    27   14   16 1
    28   16   17 1
    29   16   18 1
    30   18   19 1
    31   18   20 1
    32   18   22 1
    33   20   21 1
    34   20   48 1
    35   20   49 1
    36   21   50 1
    37   21   51 1
    38   22   23 am
    39   22   52 1
    40   23   24 2
    41   23   25 1
    42   25   29 1
    43   25   26 2
    44   26   27 1
    45   26   53 1
    46   27   28 1
    47   28   33 ar
    48   28   29 ar
    49   29   30 ar
    50   30   31 ar
    51   30   54 1
    52   31   32 ar
    53   31   55 1
    54   32   33 ar
    55   32   56 1
    56   33   57 1
    57   34   35 1
    58   34   36 1
    59   34   37 1
    60   35   58 1
    61   35   59 1
    62   35   60 1
    63   36   61 1
    64   36   62 1
    65   36   63 1
    66   37   64 1
    67   37   65 1
    68   37   66 1
    69   38   39 1
    70   38   67 1
    71   38   71 1
    72   39   68 1
    73   39   69 1
    74   39   70 1
@<TRIPOS>MOLECULE
CHEMBL578241
   78    81     0     0     0
SMALL
USER_CHARGES

@<TRIPOS>ATOM
      1 C1         -0.0187    1.5258    0.0104 C.3       1 <0>        -0.1702
      2 C2          0.0021   -0.0041    0.0020 C.3       1 <0>        -0.1417
      3 C3         -1.4333   -0.5336    0.0129 C.3       1 <0>         0.0104
      4 H1         -1.9862   -0.1019   -0.8214 H         1 <0>         0.1650
      5 C4         -1.4159   -2.0348   -0.1192 C.2       1 <0>         0.5032
      6 O1         -1.5501   -2.7316    0.8643 O.2       1 <0>        -0.4957
      7 N1         -1.2512   -2.6028   -1.3302 N.am      1 <0>        -0.6892
      8 C5         -1.2344   -4.0592   -1.4584 C.3       1 <0>         0.1537
      9 H2         -1.9415   -4.4722   -0.7218 H         1 <0>         0.1306
     10 C6         -1.6918   -4.4868   -2.8490 C.3       1 <0>        -0.1145
     11 H3         -1.3116   -5.4883   -3.0665 H         1 <0>         0.1079
     12 C7         -1.2059   -3.5091   -3.9135 C.3       1 <0>        -0.1244
     13 C8          0.3115   -3.3677   -3.8835 C.3       1 <0>        -0.1382
     14 C9          0.9536   -4.7013   -3.5066 C.3       1 <0>         0.1285
     15 H4          0.3468   -5.5249   -3.8879 H         1 <0>         0.0888
     16 C10         2.3644   -4.7755   -4.1157 C.3       1 <0>        -0.1268
     17 C11         3.1981   -5.5021   -3.0430 C.3       1 <0>        -0.1267
     18 C12         2.4736   -5.1897   -1.7234 C.3       1 <0>         0.1176
     19 H5          2.4728   -6.0728   -1.0808 H         1 <0>         0.1102
     20 N2          1.0888   -4.8071   -2.0515 N.am      1 <0>        -0.5807
     21 C13         0.1305   -4.5892   -1.1350 C.2       1 <0>         0.5258
     22 O2          0.3843   -4.8447    0.0273 O.2       1 <0>        -0.5102
     23 C14         3.1740   -4.0517   -1.0202 C.2       1 <0>         0.5199
     24 O3          2.5812   -3.0160   -0.8035 O.2       1 <0>        -0.5279
     25 N3          4.4579   -4.1869   -0.6333 N.am      1 <0>        -0.7199
     26 C15         5.1375   -3.0828    0.0490 C.3       1 <0>         0.2365
     27 C16         6.2597   -3.6289    0.8936 C.ar      1 <0>        -0.0950
     28 C17         7.0508   -4.6553    0.4122 C.ar      1 <0>        -0.1117
     29 C18         8.0802   -5.1562    1.1869 C.ar      1 <0>        -0.1123
     30 C19         8.3189   -4.6305    2.4429 C.ar      1 <0>        -0.1120
     31 C20         7.5284   -3.6036    2.9240 C.ar      1 <0>        -0.1128
     32 C21         6.5017   -3.0997    2.1475 C.ar      1 <0>        -0.1044
     33 C22         5.6974   -2.1286   -0.9742 C.ar      1 <0>        -0.0888
     34 C23         6.2767   -2.6168   -2.1305 C.ar      1 <0>        -0.1033
     35 C24         6.7903   -1.7414   -3.0690 C.ar      1 <0>        -0.1174
     36 C25         6.7241   -0.3779   -2.8516 C.ar      1 <0>        -0.1161
     37 C26         6.1440    0.1103   -1.6957 C.ar      1 <0>        -0.1174
     38 C27         5.6266   -0.7649   -0.7591 C.ar      1 <0>        -0.1039
     39 C28        -3.2266   -4.5365   -2.8781 C.3       1 <0>         0.1446
     40 N4         -3.6738   -5.0603   -4.1711 N.am      1 <0>        -0.7470
     41 C29        -4.9907   -5.1937   -4.4251 C.2       1 <0>         0.7068
     42 O4         -5.8075   -4.8793   -3.5811 O.2       1 <0>        -0.5918
     43 N5         -5.4021   -5.6756   -5.6146 N.am      1 <0>        -0.8643
     44 N6         -2.0833   -0.1607    1.2764 N.4       1 <0>        -0.6214
     45 H6          1.0039    1.9031    0.0027 H         1 <0>         0.0888
     46 H7         -0.5459    1.8868   -0.8726 H         1 <0>         0.0751
     47 H8         -0.5289    1.8773    0.9072 H         1 <0>         0.0552
     48 H9          0.5123   -0.3556   -0.8948 H         1 <0>         0.1177
     49 H10         0.5293   -0.3651    0.8851 H         1 <0>         0.0987
     50 H11        -1.1439   -2.0455   -2.1168 H         1 <0>         0.4115
     51 H12        -1.5046   -3.8835   -4.9012 H         1 <0>         0.0832
     52 H13        -1.6718   -2.5339   -3.7701 H         1 <0>         0.0726
     53 H14         0.6658   -3.0677   -4.8738 H         1 <0>         0.0893
     54 H15         0.6036   -2.6055   -3.1628 H         1 <0>         0.0746
     55 H16         2.3519   -5.3518   -5.0397 H         1 <0>         0.0947
     56 H17         2.7583   -3.7764   -4.2932 H         1 <0>         0.0818
     57 H18         3.2075   -6.5741   -3.2300 H         1 <0>         0.0948
     58 H19         4.2141   -5.1078   -3.0239 H         1 <0>         0.0896
     59 H20         4.9321   -5.0152   -0.8065 H         1 <0>         0.4017
     60 H21         4.4264   -2.5566    0.6858 H         1 <0>         0.1002
     61 H22         6.8643   -5.0660   -0.5691 H         1 <0>         0.1179
     62 H23         8.6978   -5.9585    0.8110 H         1 <0>         0.1269
     63 H24         9.1227   -5.0224    3.0485 H         1 <0>         0.1266
     64 H25         7.7147   -3.1931    3.9054 H         1 <0>         0.1268
     65 H26         5.8865   -2.2949    2.5219 H         1 <0>         0.1217
     66 H27         6.3284   -3.6821   -2.3004 H         1 <0>         0.1153
     67 H28         7.2435   -2.1229   -3.9721 H         1 <0>         0.1233
     68 H29         7.1260    0.3059   -3.5846 H         1 <0>         0.1232
     69 H30         6.0926    1.1756   -1.5257 H         1 <0>         0.1226
     70 H31         5.1700   -0.3833    0.1422 H         1 <0>         0.1178
     71 H32        -3.5843   -5.1863   -2.0794 H         1 <0>         0.0744
     72 H33        -3.6254   -3.5321   -2.7354 H         1 <0>         0.0694
     73 H34        -3.0221   -5.3111   -4.8444 H         1 <0>         0.3982
     74 H35        -4.7504   -5.9264   -6.2879 H         1 <0>         0.3986
     75 H36        -6.3499   -5.7716   -5.7974 H         1 <0>         0.4193
     76 H37        -1.5715   -0.5604    2.0487 H         1 <0>         0.4431
     77 H38        -2.0949    0.8443    1.3648 H         1 <0>         0.4407
     78 H39        -3.0299   -0.5100    1.2835 H         1 <0>         0.4410
@<TRIPOS>BOND
     1    1    2 1
     2    1   45 1
     3    1   46 1
     4    1   47 1
     5    2    3 1
     6    2   48 1
     7    2   49 1
     8    3    4 1
     9    3    5 1
    10    3   44 1
    11    5    6 2
    12    5    7 am
    13    7    8 1
    14    7   50 1
    15    8    9 1
    16    8   21 1
    17    8   10 1
    18   10   11 1
    19   10   12 1
    20   10   39 1
    21   12   13 1
    22   12   51 1
    23   12   52 1
    24   13   14 1
    25   13   53 1
    26   13   54 1
    27   14   15 1
    28   14   20 1
    29   14   16 1
    30   16   17 1
    31   16   55 1
    32   16   56 1
    33   17   18 1
    34   17   57 1
    35   17   58 1
    36   18   19 1
    37   18   20 1
    38   18   23 1
    39   20   21 am
    40   21   22 2
    41   23   24 2
    42   23   25 am
    43   25   26 1
    44   25   59 1
    45   26   27 1
    46   26   33 1
    47   26   60 1
    48   27   32 ar
    49   27   28 ar
    50   28   29 ar
    51   28   61 1
    52   29   30 ar
    53   29   62 1
    54   30   31 ar
    55   30   63 1
    56   31   32 ar
    57   31   64 1
    58   32   65 1
    59   33   38 ar
    60   33   34 ar
    61   34   35 ar
    62   34   66 1
    63   35   36 ar
    64   35   67 1
    65   36   37 ar
    66   36   68 1
    67   37   38 ar
    68   37   69 1
    69   38   70 1
    70   39   40 1
    71   39   71 1
    72   39   72 1
    73   40   41 am
    74   40   73 1
    75   41   42 2
    76   41   43 am
    77   43   74 1
    78   43   75 1
    79   44   76 1
    80   44   77 1
    81   44   78 1
@<TRIPOS>MOLECULE
CHEMBL234345
   63    64     0     0     0
SMALL
USER_CHARGES

@<TRIPOS>ATOM
      1 C1          3.2350    1.1684   -0.4048 C.3       1 <0>        -0.1832
      2 C2          2.4772   -0.1401   -0.1713 C.3       1 <0>         0.0084
      3 H1          1.5742    0.0610    0.4052 H         1 <0>         0.1697
      4 C3          2.1011   -0.7465   -1.4987 C.2       1 <0>         0.5024
      5 O1          2.5062   -1.8499   -1.7978 O.2       1 <0>        -0.5251
      6 N1          1.3147   -0.0628   -2.3533 N.am      1 <0>        -0.6807
      7 C4          0.9491   -0.6524   -3.6437 C.3       1 <0>         0.1364
      8 H2          1.7822   -1.2452   -4.0214 H         1 <0>         0.1139
      9 C5         -0.2764   -1.5508   -3.4650 C.3       1 <0>        -0.0959
     10 C6         -0.5806   -2.2664   -4.7827 C.3       1 <0>        -0.1601
     11 C7          0.0053   -2.5869   -2.3751 C.3       1 <0>        -0.1351
     12 C8          0.6284    0.4456   -4.6248 C.2       1 <0>         0.5355
     13 O2          0.0822    1.4591   -4.2435 O.2       1 <0>        -0.5190
     14 N2          0.9484    0.3012   -5.9260 N.am      1 <0>        -0.5885
     15 C9          1.6878   -0.8335   -6.5082 C.3       1 <0>         0.0876
     16 C10         1.2658   -0.8591   -7.9985 C.3       1 <0>        -0.1318
     17 C11         1.1583    0.6554   -8.3179 C.3       1 <0>        -0.1266
     18 C12         0.6125    1.2463   -7.0010 C.3       1 <0>         0.1207
     19 H3          1.0820    2.2106   -6.8070 H         1 <0>         0.0967
     20 C13        -0.8829    1.4100   -7.0907 C.2       1 <0>         0.5141
     21 O3         -1.6064    0.7991   -6.3328 O.2       1 <0>        -0.5317
     22 N3         -1.4164    2.2351   -8.0132 N.am      1 <0>        -0.6886
     23 C14        -2.8701    2.3942   -8.1005 C.3       1 <0>         0.0885
     24 H4         -3.3024    2.3376   -7.1015 H         1 <0>         0.0812
     25 C15        -3.1980    3.7534   -8.7217 C.3       1 <0>        -0.0778
     26 C16        -2.7312    4.8520   -7.8018 C.ar      1 <0>        -0.0637
     27 C17        -3.5796    5.3455   -6.8284 C.ar      1 <0>        -0.1158
     28 C18        -3.1515    6.3532   -5.9846 C.ar      1 <0>        -0.1178
     29 C19        -1.8747    6.8671   -6.1138 C.ar      1 <0>        -0.1344
     30 C20        -1.0260    6.3730   -7.0866 C.ar      1 <0>        -0.1204
     31 C21        -1.4527    5.3623   -7.9277 C.ar      1 <0>        -0.1185
     32 C22        -3.4448    1.2975   -8.9594 C.2       1 <0>         0.4917
     33 O4         -2.7084    0.4605   -9.4530 O.co2     1 <0>        -0.6843
     34 O5         -4.6462    1.2471   -9.1608 O.co2     1 <0>        -0.6934
     35 N4          3.3331   -1.0761    0.5698 N.4       1 <0>        -0.6190
     36 H5          4.1380    0.9674   -0.9813 H         1 <0>         0.0902
     37 H6          2.6000    1.8629   -0.9548 H         1 <0>         0.1133
     38 H7          3.5070    1.6070    0.5552 H         1 <0>         0.0986
     39 H8          0.9907    0.8196   -2.1141 H         1 <0>         0.4178
     40 H9         -1.1335   -0.9427   -3.1756 H         1 <0>         0.0855
     41 H10         0.2520   -2.9207   -5.0414 H         1 <0>         0.0572
     42 H11        -1.4883   -2.8597   -4.6728 H         1 <0>         0.0685
     43 H12        -0.7221   -1.5288   -5.5726 H         1 <0>         0.0810
     44 H13         0.2220   -2.0770   -1.4364 H         1 <0>         0.0367
     45 H14        -0.8678   -3.2269   -2.2478 H         1 <0>         0.0609
     46 H15         0.8624   -3.1949   -2.6646 H         1 <0>         0.0683
     47 H16         2.7621   -0.6712   -6.4209 H         1 <0>         0.0730
     48 H17         1.4028   -1.7640   -6.0172 H         1 <0>         0.0830
     49 H18         2.0303   -1.3347   -8.6129 H         1 <0>         0.0902
     50 H19         0.3027   -1.3541   -8.1234 H         1 <0>         0.0889
     51 H20         2.1383    1.0702   -8.5540 H         1 <0>         0.0846
     52 H21         0.4581    0.8285   -9.1350 H         1 <0>         0.1027
     53 H22        -0.8378    2.7237   -8.6194 H         1 <0>         0.3871
     54 H23        -2.6923    3.8451   -9.6830 H         1 <0>         0.0717
     55 H24        -4.2750    3.8355   -8.8685 H         1 <0>         0.0944
     56 H25        -4.5772    4.9441   -6.7274 H         1 <0>         0.1224
     57 H26        -3.8146    6.7393   -5.2245 H         1 <0>         0.1175
     58 H27        -1.5404    7.6549   -5.4550 H         1 <0>         0.1150
     59 H28        -0.0286    6.7747   -7.1878 H         1 <0>         0.1160
     60 H29        -0.7883    4.9736   -8.6853 H         1 <0>         0.1161
     61 H30         3.5848   -0.6700    1.4585 H         1 <0>         0.4416
     62 H31         2.8333   -1.9390    0.7238 H         1 <0>         0.4425
     63 H32         4.1689   -1.2622    0.0362 H         1 <0>         0.4396
@<TRIPOS>BOND
     1    1    2 1
     2    1   36 1
     3    1   37 1
     4    1   38 1
     5    2    3 1
     6    2    4 1
     7    2   35 1
     8    4    5 2
     9    4    6 am
    10    6    7 1
    11    6   39 1
    12    7    8 1
    13    7    9 1
    14    7   12 1
    15    9   10 1
    16    9   11 1
    17    9   40 1
    18   10   41 1
    19   10   42 1
    20   10   43 1
    21   11   44 1
    22   11   45 1
    23   11   46 1
    24   12   13 2
    25   12   14 am
    26   14   18 1
    27   14   15 1
    28   15   16 1
    29   15   47 1
    30   15   48 1
    31   16   17 1
    32   16   49 1
    33   16   50 1
    34   17   18 1
    35   17   51 1
    36   17   52 1
    37   18   19 1
    38   18   20 1
    39   20   21 2
    40   20   22 am
    41   22   23 1
    42   22   53 1
    43   23   24 1
    44   23   25 1
    45   23   32 1
    46   25   26 1
    47   25   54 1
    48   25   55 1
    49   26   31 ar
    50   26   27 ar
    51   27   28 ar
    52   27   56 1
    53   28   29 ar
    54   28   57 1
    55   29   30 ar
    56   29   58 1
    57   30   31 ar
    58   30   59 1
    59   31   60 1
    60   32   33 2
    61   32   34 1
    62   35   61 1
    63   35   62 1
    64   35   63 1
@<TRIPOS>MOLECULE
CHEMBL234346
   62    62     0     0     0
SMALL
USER_CHARGES

@<TRIPOS>ATOM
      1 C1         -0.0187    1.5258    0.0104 C.3       1 <0>        -0.1483
      2 C2          0.0021   -0.0041    0.0020 C.3       1 <0>        -0.1147
      3 C3          0.7421   -0.5109    1.2415 C.3       1 <0>        -0.0805
      4 H1          0.2852   -0.0874    2.1360 H         1 <0>         0.0580
      5 C4          2.2100   -0.0858    1.1685 C.3       1 <0>        -0.1429
      6 C5          0.6554   -2.0374    1.2986 C.3       1 <0>         0.0790
      7 H2         -0.3900   -2.3436    1.2611 H         1 <0>         0.0761
      8 C6          1.3940   -2.6267    0.1246 C.2       1 <0>         0.4994
      9 O1          2.5795   -2.8940    0.2221 O.co2     1 <0>        -0.6903
     10 O2          0.8060   -2.8362   -0.9227 O.co2     1 <0>        -0.6924
     11 N1          1.2595   -2.5145    2.5451 N.am      1 <0>        -0.6902
     12 C7          0.8819   -3.6984    3.0670 C.2       1 <0>         0.5041
     13 O3          0.0419   -4.3686    2.5047 O.2       1 <0>        -0.5330
     14 C8          1.5033   -4.1892    4.3491 C.3       1 <0>         0.1214
     15 H3          1.3178   -3.4723    5.1490 H         1 <0>         0.0981
     16 C9          3.0227   -4.3794    4.1568 C.3       1 <0>        -0.1273
     17 C10         3.3173   -5.6677    4.9698 C.3       1 <0>        -0.1299
     18 C11         2.0302   -6.4933    4.7215 C.3       1 <0>         0.0916
     19 N2          0.9385   -5.4978    4.7096 N.am      1 <0>        -0.5890
     20 C12        -0.3578   -5.7455    4.9830 C.2       1 <0>         0.5361
     21 O4         -1.1690   -4.8448    4.9418 O.2       1 <0>        -0.5230
     22 C13        -0.7993   -7.1415    5.3398 C.3       1 <0>         0.1375
     23 H4         -0.2736   -7.4709    6.2360 H         1 <0>         0.1188
     24 C14        -0.4779   -8.0894    4.1826 C.3       1 <0>        -0.1102
     25 C15        -0.9261   -9.5067    4.5448 C.3       1 <0>        -0.1340
     26 C16        -1.2158   -7.6271    2.9246 C.3       1 <0>        -0.1589
     27 N3         -2.2427   -7.1482    5.5900 N.am      1 <0>        -0.6733
     28 C17        -2.7847   -8.0931    6.3837 C.2       1 <0>         0.5030
     29 O5         -2.0774   -8.9378    6.8908 O.2       1 <0>        -0.5291
     30 C18        -4.2695   -8.1000    6.6412 C.3       1 <0>         0.0086
     31 H5         -4.8015   -8.2128    5.6965 H         1 <0>         0.1693
     32 C19        -4.6785   -6.7825    7.3027 C.3       1 <0>        -0.1834
     33 N4         -4.6072   -9.2198    7.5300 N.4       1 <0>        -0.6188
     34 H6          1.0039    1.9031    0.0027 H         1 <0>         0.0543
     35 H7         -0.5459    1.8868   -0.8726 H         1 <0>         0.0503
     36 H8         -0.5289    1.8773    0.9072 H         1 <0>         0.0461
     37 H9         -1.0205   -0.3814    0.0098 H         1 <0>         0.0575
     38 H10         0.5123   -0.3556   -0.8948 H         1 <0>         0.0778
     39 H11         2.7372   -0.4469    2.0516 H         1 <0>         0.0446
     40 H12         2.6669   -0.5093    0.2741 H         1 <0>         0.0725
     41 H13         2.2717    1.0017    1.1279 H         1 <0>         0.0470
     42 H14         1.9313   -1.9784    2.9947 H         1 <0>         0.3907
     43 H15         3.2629   -4.5247    3.1035 H         1 <0>         0.0970
     44 H16         3.5723   -3.5315    4.5653 H         1 <0>         0.0943
     45 H17         4.1941   -6.1842    4.5793 H         1 <0>         0.0931
     46 H18         3.4383   -5.4420    6.0292 H         1 <0>         0.0797
     47 H19         2.0879   -7.0063    3.7615 H         1 <0>         0.0807
     48 H20         1.8785   -7.2110    5.5276 H         1 <0>         0.0798
     49 H21         0.5961   -8.0844    3.9964 H         1 <0>         0.0979
     50 H22        -2.0001   -9.5117    4.7310 H         1 <0>         0.0413
     51 H23        -0.6972  -10.1821    3.7204 H         1 <0>         0.0595
     52 H24        -0.4004   -9.8361    5.4411 H         1 <0>         0.0643
     53 H25        -0.8965   -6.6173    2.6665 H         1 <0>         0.0843
     54 H26        -0.9868   -8.3024    2.1002 H         1 <0>         0.0631
     55 H27        -2.2898   -7.6320    3.1108 H         1 <0>         0.0465
     56 H28        -2.8084   -6.4726    5.1845 H         1 <0>         0.4200
     57 H29        -4.1465   -6.6697    8.2474 H         1 <0>         0.0898
     58 H30        -4.4280   -5.9516    6.6432 H         1 <0>         0.1152
     59 H31        -5.7525   -6.7875    7.4890 H         1 <0>         0.0980
     60 H32        -4.1147   -9.1154    8.4045 H         1 <0>         0.4393
     61 H33        -5.6013   -9.2244    7.7024 H         1 <0>         0.4414
     62 H34        -4.3374  -10.0887    7.0937 H         1 <0>         0.4419
@<TRIPOS>BOND
     1    1    2 1
     2    1   34 1
     3    1   35 1
     4    1   36 1
     5    2    3 1
     6    2   37 1
     7    2   38 1
     8    3    4 1
     9    3    5 1
    10    3    6 1
    11    5   39 1
    12    5   40 1
    13    5   41 1
    14    6    7 1
    15    6    8 1
    16    6   11 1
    17    8    9 2
    18    8   10 1
    19   11   12 am
    20   11   42 1
    21   12   13 2
    22   12   14 1
    23   14   15 1
    24   14   19 1
    25   14   16 1
    26   16   17 1
    27   16   43 1
    28   16   44 1
    29   17   18 1
    30   17   45 1
    31   17   46 1
    32   18   19 1
    33   18   47 1
    34   18   48 1
    35   19   20 am
    36   20   21 2
    37   20   22 1
    38   22   23 1
    39   22   24 1
    40   22   27 1
    41   24   25 1
    42   24   26 1
    43   24   49 1
    44   25   50 1
    45   25   51 1
    46   25   52 1
    47   26   53 1
    48   26   54 1
    49   26   55 1
    50   27   28 am
    51   27   56 1
    52   28   29 2
    53   28   30 1
    54   30   31 1
    55   30   32 1
    56   30   33 1
    57   32   57 1
    58   32   58 1
    59   32   59 1
    60   33   60 1
    61   33   61 1
    62   33   62 1
@<TRIPOS>MOLECULE
CHEMBL575807
   75    78     0     0     0
SMALL
USER_CHARGES

@<TRIPOS>ATOM
      1 C1         -0.0187    1.5258    0.0104 C.3       1 <0>        -0.1720
      2 C2          0.0021   -0.0041    0.0020 C.3       1 <0>        -0.1434
      3 C3          0.7182   -0.4975   -1.2568 C.3       1 <0>         0.0129
      4 H1          1.7103   -0.0491   -1.3098 H         1 <0>         0.1649
      5 C4          0.8473   -1.9981   -1.2057 C.2       1 <0>         0.5052
      6 O1          0.0734   -2.6948   -1.8275 O.2       1 <0>        -0.4847
      7 N1          1.8227   -2.5659   -0.4690 N.am      1 <0>        -0.7009
      8 C5          1.9479   -4.0218   -0.4195 C.3       1 <0>         0.1560
      9 H2          1.6698   -4.4194   -1.4083 H         1 <0>         0.1346
     10 C6          3.3875   -4.4329   -0.1289 C.3       1 <0>        -0.1322
     11 H3          3.4014   -5.4428    0.2890 H         1 <0>         0.1249
     12 C7          4.0513   -3.4639    0.8436 C.3       1 <0>        -0.1400
     13 C8          3.2649   -3.3608    2.1453 C.3       1 <0>        -0.1418
     14 C9          2.6383   -4.7114    2.4861 C.3       1 <0>         0.1286
     15 H4          3.2846   -5.5181    2.1349 H         1 <0>         0.0846
     16 C10         2.4620   -4.8188    4.0106 C.3       1 <0>        -0.1287
     17 C11         1.1277   -5.5699    4.1817 C.3       1 <0>        -0.1291
     18 C12         0.3420   -5.2440    2.9009 C.3       1 <0>         0.1169
     19 H5         -0.2003   -6.1291    2.5612 H         1 <0>         0.1127
     20 N2          1.3122   -4.8256    1.8736 N.am      1 <0>        -0.5813
     21 C13         0.9940   -4.5869    0.5900 C.2       1 <0>         0.5167
     22 O2         -0.1354   -4.8528    0.2235 O.2       1 <0>        -0.4937
     23 C14        -0.6347   -4.1264    3.1785 C.2       1 <0>         0.5194
     24 O3         -0.5422   -3.0770    2.5776 O.2       1 <0>        -0.5331
     25 N3         -1.6093   -4.2952    4.0940 N.am      1 <0>        -0.7162
     26 C15        -2.5570   -3.2109    4.3633 C.3       1 <0>         0.2389
     27 C16        -3.6840   -3.2692    3.3647 C.ar      1 <0>        -0.0922
     28 C17        -4.2126   -4.4901    2.9894 C.ar      1 <0>        -0.1004
     29 C18        -5.2464   -4.5436    2.0733 C.ar      1 <0>        -0.1156
     30 C19        -5.7521   -3.3761    1.5329 C.ar      1 <0>        -0.1143
     31 C20        -5.2242   -2.1550    1.9088 C.ar      1 <0>        -0.1195
     32 C21        -4.1932   -2.1013    2.8281 C.ar      1 <0>        -0.1052
     33 C22        -3.1117   -3.3630    5.7562 C.ar      1 <0>        -0.0995
     34 C23        -3.4244   -4.6187    6.2424 C.ar      1 <0>        -0.1133
     35 C24        -3.9332   -4.7582    7.5201 C.ar      1 <0>        -0.1111
     36 C25        -4.1289   -3.6421    8.3118 C.ar      1 <0>        -0.1091
     37 C26        -3.8153   -2.3865    7.8260 C.ar      1 <0>        -0.1112
     38 C27        -3.3024   -2.2473    6.5499 C.ar      1 <0>        -0.1043
     39 C28         4.1804   -4.4439   -1.4441 C.3       1 <0>        -0.0068
     40 N4          5.5355   -4.9532   -1.1947 N.4       1 <0>        -0.6381
     41 N5         -0.0570   -0.1128   -2.4438 N.4       1 <0>        -0.6231
     42 H6          1.0039    1.9031    0.0027 H         1 <0>         0.0754
     43 H7         -0.5459    1.8868   -0.8726 H         1 <0>         0.0575
     44 H8         -0.5289    1.8773    0.9072 H         1 <0>         0.0923
     45 H9          0.5293   -0.3651    0.8851 H         1 <0>         0.1170
     46 H10        -1.0205   -0.3814    0.0098 H         1 <0>         0.1014
     47 H11         2.4416   -2.0086    0.0283 H         1 <0>         0.4123
     48 H12         5.0618   -3.8273    1.0713 H         1 <0>         0.0812
     49 H13         4.1448   -2.4779    0.3880 H         1 <0>         0.0852
     50 H14         3.9408   -3.0664    2.9532 H         1 <0>         0.0996
     51 H15         2.4829   -2.6087    2.0531 H         1 <0>         0.0839
     52 H16         3.2775   -5.3915    4.4502 H         1 <0>         0.0977
     53 H17         2.4033   -3.8293    4.4604 H         1 <0>         0.0849
     54 H18         1.3017   -6.6412    4.2619 H         1 <0>         0.0970
     55 H19         0.5973   -5.2013    5.0597 H         1 <0>         0.0959
     56 H20        -1.6833   -5.1345    4.5746 H         1 <0>         0.4030
     57 H21        -2.0456   -2.2520    4.2786 H         1 <0>         0.1012
     58 H22        -3.8175   -5.4023    3.4116 H         1 <0>         0.1146
     59 H23        -5.6588   -5.4975    1.7796 H         1 <0>         0.1241
     60 H24        -6.5593   -3.4179    0.8166 H         1 <0>         0.1241
     61 H25        -5.6190   -1.2429    1.4863 H         1 <0>         0.1224
     62 H26        -3.7832   -1.1472    3.1246 H         1 <0>         0.1179
     63 H27        -3.2715   -5.4907    5.6238 H         1 <0>         0.1168
     64 H28        -4.1782   -5.7392    7.8996 H         1 <0>         0.1279
     65 H29        -4.5271   -3.7510    9.3098 H         1 <0>         0.1285
     66 H30        -3.9685   -1.5144    8.4445 H         1 <0>         0.1285
     67 H31        -3.0540   -1.2667    6.1717 H         1 <0>         0.1221
     68 H32         3.6776   -5.0873   -2.1661 H         1 <0>         0.1445
     69 H33         4.2405   -3.4304   -1.8407 H         1 <0>         0.1369
     70 H34         6.0010   -4.3575   -0.5263 H         1 <0>         0.4351
     71 H35         5.4800   -5.8914   -0.8276 H         1 <0>         0.4404
     72 H36        -0.9754   -0.5279   -2.3947 H         1 <0>         0.4458
     73 H37        -0.1435    0.8919   -2.4780 H         1 <0>         0.4450
     74 H38         6.0565   -4.9604   -2.0588 H         1 <0>         0.4454
     75 H39         0.4152   -0.4382   -3.2739 H         1 <0>         0.4395
@<TRIPOS>BOND
     1    1    2 1
     2    1   42 1
     3    1   43 1
     4    1   44 1
     5    2    3 1
     6    2   45 1
     7    2   46 1
     8    3    4 1
     9    3    5 1
    10    3   41 1
    11    5    6 2
    12    5    7 am
    13    7    8 1
    14    7   47 1
    15    8    9 1
    16    8   21 1
    17    8   10 1
    18   10   11 1
    19   10   12 1
    20   10   39 1
    21   12   13 1
    22   12   48 1
    23   12   49 1
    24   13   14 1
    25   13   50 1
    26   13   51 1
    27   14   15 1
    28   14   20 1
    29   14   16 1
    30   16   17 1
    31   16   52 1
    32   16   53 1
    33   17   18 1
    34   17   54 1
    35   17   55 1
    36   18   19 1
    37   18   20 1
    38   18   23 1
    39   20   21 am
    40   21   22 2
    41   23   24 2
    42   23   25 am
    43   25   26 1
    44   25   56 1
    45   26   27 1
    46   26   33 1
    47   26   57 1
    48   27   32 ar
    49   27   28 ar
    50   28   29 ar
    51   28   58 1
    52   29   30 ar
    53   29   59 1
    54   30   31 ar
    55   30   60 1
    56   31   32 ar
    57   31   61 1
    58   32   62 1
    59   33   38 ar
    60   33   34 ar
    61   34   35 ar
    62   34   63 1
    63   35   36 ar
    64   35   64 1
    65   36   37 ar
    66   36   65 1
    67   37   38 ar
    68   37   66 1
    69   38   67 1
    70   39   40 1
    71   39   68 1
    72   39   69 1
    73   40   70 1
    74   40   71 1
    75   40   74 1
    76   41   72 1
    77   41   73 1
    78   41   75 1
@<TRIPOS>MOLECULE
CHEMBL181872
   41    43     0     0     0
SMALL
USER_CHARGES

@<TRIPOS>ATOM
      1 C1          0.2502    2.1290    0.3304 C.3       1 <0>        -0.1838
      2 C2          0.1110    0.6103    0.2080 C.3       1 <0>         0.0177
      3 H1          0.5659    0.2777   -0.7250 H         1 <0>         0.1710
      4 C3          0.8050   -0.0530    1.3697 C.2       1 <0>         0.4957
      5 O1          0.1588   -0.4470    2.3174 O.2       1 <0>        -0.4557
      6 N1          2.1437   -0.2084    1.3554 N.am      1 <0>        -0.5948
      7 C4          2.7829   -0.8193    2.4253 C.2       1 <0>         0.2790
      8 N2          2.2625   -1.3147    3.5329 N.2       1 <0>        -0.4720
      9 C5          3.0179   -1.8696    4.4644 C.2       1 <0>         0.1163
     10 C6          4.3934   -1.9278    4.2628 C.2       1 <0>        -0.1033
     11 S1          4.5240   -1.1472    2.6593 S.3       1 <0>         0.0880
     12 C7          5.4503   -2.4845    5.1292 C.ar      1 <0>        -0.0266
     13 C8          6.6002   -1.7391    5.4006 C.ar      1 <0>        -0.0952
     14 C9          7.5841   -2.2658    6.2112 C.ar      1 <0>        -0.1159
     15 C10         7.4341   -3.5294    6.7550 C.ar      1 <0>        -0.0962
     16 C11         6.2979   -4.2736    6.4901 C.ar      1 <0>        -0.1145
     17 C12         5.3032   -3.7571    5.6863 C.ar      1 <0>        -0.0793
     18 C13         2.4122   -2.4186    5.6993 C.ar      1 <0>        -0.0133
     19 C14         3.0095   -2.1812    6.9374 C.ar      1 <0>        -0.0847
     20 C15         2.4408   -2.6951    8.0845 C.ar      1 <0>        -0.0883
     21 C16         1.2800   -3.4455    8.0084 C.ar      1 <0>        -0.0793
     22 C17         0.6829   -3.6844    6.7825 C.ar      1 <0>        -0.0935
     23 C18         1.2392   -3.1703    5.6295 C.ar      1 <0>        -0.0780
     24 Br1         0.5073   -4.1476    9.5852 Br        1 <0>        -0.0396
     25 N3         -1.3123    0.2469    0.2156 N.4       1 <0>        -0.6217
     26 H2          1.3063    2.3987    0.3248 H         1 <0>         0.1135
     27 H3         -0.2517    2.6088   -0.5098 H         1 <0>         0.1047
     28 H4         -0.2047    2.4616    1.2634 H         1 <0>         0.0937
     29 H5          2.6605    0.1067    0.5975 H         1 <0>         0.4359
     30 H6          6.7187   -0.7529    4.9765 H         1 <0>         0.1256
     31 H7          8.4737   -1.6908    6.4216 H         1 <0>         0.1321
     32 H8          8.2077   -3.9368    7.3891 H         1 <0>         0.1309
     33 H9          6.1879   -5.2593    6.9174 H         1 <0>         0.1322
     34 H10         4.4146   -4.3369    5.4846 H         1 <0>         0.1256
     35 H11         3.9155   -1.5964    6.9978 H         1 <0>         0.1333
     36 H12         2.9023   -2.5119    9.0436 H         1 <0>         0.1391
     37 H13        -0.2227   -4.2705    6.7291 H         1 <0>         0.1368
     38 H14         0.7699   -3.3532    4.6741 H         1 <0>         0.1314
     39 H15        -1.4042   -0.7547    0.1349 H         1 <0>         0.4423
     40 H16        -1.7335    0.5547    1.0793 H         1 <0>         0.4441
     41 H17        -1.7770    0.6910   -0.5622 H         1 <0>         0.4467
@<TRIPOS>BOND
     1    1    2 1
     2    1   26 1
     3    1   27 1
     4    1   28 1
     5    2    3 1
     6    2    4 1
     7    2   25 1
     8    4    5 2
     9    4    6 am
    10    6    7 1
    11    6   29 1
    12    7   11 1
    13    7    8 2
    14    8    9 1
    15    9   10 2
    16    9   18 1
    17   10   11 1
    18   10   12 1
    19   12   17 ar
    20   12   13 ar
    21   13   14 ar
    22   13   30 1
    23   14   15 ar
    24   14   31 1
    25   15   16 ar
    26   15   32 1
    27   16   17 ar
    28   16   33 1
    29   17   34 1
    30   18   23 ar
    31   18   19 ar
    32   19   20 ar
    33   19   35 1
    34   20   21 ar
    35   20   36 1
    36   21   22 ar
    37   21   24 1
    38   22   23 ar
    39   22   37 1
    40   23   38 1
    41   25   39 1
    42   25   40 1
    43   25   41 1
@<TRIPOS>MOLECULE
CHEMBL181872__1
   40    42     0     0     0
SMALL
USER_CHARGES

@<TRIPOS>ATOM
      1 C1          0.2502    2.1290    0.3304 C.3       1 <0>        -0.1874
      2 C2          0.1110    0.6103    0.2080 C.3       1 <0>         0.0814
      3 H1          0.5659    0.2777   -0.7250 H         1 <0>         0.1104
      4 C3          0.8050   -0.0530    1.3697 C.2       1 <0>         0.5134
      5 O1          0.1588   -0.4470    2.3174 O.2       1 <0>        -0.4527
      6 N1          2.1437   -0.2084    1.3554 N.am      1 <0>        -0.6179
      7 C4          2.7829   -0.8193    2.4253 C.2       1 <0>         0.3325
      8 N2          2.2625   -1.3147    3.5329 N.2       1 <0>        -0.4900
      9 C5          3.0179   -1.8696    4.4644 C.2       1 <0>         0.1314
     10 C6          4.3934   -1.9278    4.2628 C.2       1 <0>        -0.1406
     11 S1          4.5240   -1.1472    2.6593 S.3       1 <0>         0.0428
     12 C7          5.4503   -2.4845    5.1292 C.ar      1 <0>        -0.0053
     13 C8          6.6002   -1.7391    5.4006 C.ar      1 <0>        -0.1007
     14 C9          7.5841   -2.2658    6.2112 C.ar      1 <0>        -0.1171
     15 C10         7.4341   -3.5294    6.7550 C.ar      1 <0>        -0.1072
     16 C11         6.2979   -4.2736    6.4901 C.ar      1 <0>        -0.1150
     17 C12         5.3032   -3.7571    5.6863 C.ar      1 <0>        -0.0851
     18 C13         2.4122   -2.4186    5.6993 C.ar      1 <0>        -0.0063
     19 C14         3.0095   -2.1812    6.9374 C.ar      1 <0>        -0.0866
     20 C15         2.4408   -2.6951    8.0845 C.ar      1 <0>        -0.0913
     21 C16         1.2800   -3.4455    8.0084 C.ar      1 <0>        -0.0823
     22 C17         0.6829   -3.6844    6.7825 C.ar      1 <0>        -0.0928
     23 C18         1.2392   -3.1703    5.6295 C.ar      1 <0>        -0.0751
     24 Br1         0.5073   -4.1476    9.5852 Br        1 <0>        -0.0493
     25 N3         -1.3123    0.2469    0.2156 N.3       1 <0>        -0.8299
     26 H2          1.3063    2.3987    0.3248 H         1 <0>         0.0689
     27 H3         -0.2517    2.6088   -0.5098 H         1 <0>         0.0761
     28 H4         -0.2047    2.4616    1.2634 H         1 <0>         0.0662
     29 H5          2.6605    0.1067    0.5975 H         1 <0>         0.4279
     30 H6          6.7187   -0.7529    4.9765 H         1 <0>         0.1245
     31 H7          8.4737   -1.6908    6.4216 H         1 <0>         0.1279
     32 H8          8.2077   -3.9368    7.3891 H         1 <0>         0.1262
     33 H9          6.1879   -5.2593    6.9174 H         1 <0>         0.1284
     34 H10         4.4146   -4.3369    5.4846 H         1 <0>         0.1247
     35 H11         3.9155   -1.5964    6.9978 H         1 <0>         0.1322
     36 H12         2.9023   -2.5119    9.0436 H         1 <0>         0.1359
     37 H13        -0.2227   -4.2705    6.7291 H         1 <0>         0.1360
     38 H14         0.7699   -3.3532    4.6741 H         1 <0>         0.1358
     39 H15        -1.7570    0.5447    1.0710 H         1 <0>         0.3554
     40 H16        -1.7868    0.6267   -0.5898 H         1 <0>         0.3547
@<TRIPOS>BOND
     1    1    2 1
     2    1   26 1
     3    1   27 1
     4    1   28 1
     5    2    3 1
     6    2    4 1
     7    2   25 1
     8    4    5 2
     9    4    6 am
    10    6    7 1
    11    6   29 1
    12    7   11 1
    13    7    8 2
    14    8    9 1
    15    9   10 2
    16    9   18 1
    17   10   11 1
    18   10   12 1
    19   12   17 ar
    20   12   13 ar
    21   13   14 ar
    22   13   30 1
    23   14   15 ar
    24   14   31 1
    25   15   16 ar
    26   15   32 1
    27   16   17 ar
    28   16   33 1
    29   17   34 1
    30   18   23 ar
    31   18   19 ar
    32   19   20 ar
    33   19   35 1
    34   20   21 ar
    35   20   36 1
    36   21   22 ar
    37   21   24 1
    38   22   23 ar
    39   22   37 1
    40   23   38 1
    41   25   39 1
    42   25   40 1
@<TRIPOS>MOLECULE
CHEMBL575805
   79    82     0     0     0
SMALL
USER_CHARGES

@<TRIPOS>ATOM
      1 C1         -0.3222    1.8588   -0.0793 C.3       1 <0>        -0.1720
      2 C2         -0.1498    0.3400   -0.1442 C.3       1 <0>        -0.1437
      3 C3         -1.5088   -0.3363    0.0479 C.3       1 <0>         0.0056
      4 H1         -2.2151    0.0528   -0.6855 H         1 <0>         0.1659
      5 C4         -1.3601   -1.8243   -0.1382 C.2       1 <0>         0.5082
      6 O1         -1.6412   -2.5798    0.7680 O.2       1 <0>        -0.5005
      7 N1         -0.9149   -2.3156   -1.3115 N.am      1 <0>        -0.6872
      8 C5         -0.7707   -3.7594   -1.4920 C.3       1 <0>         0.1514
      9 H2         -1.5814   -4.2531   -0.9334 H         1 <0>         0.1272
     10 C6         -0.9068   -4.1385   -2.9630 C.3       1 <0>        -0.0987
     11 H3         -0.4214   -5.1022   -3.1380 H         1 <0>         0.1021
     12 C7         -0.2853   -3.0776   -3.8649 C.3       1 <0>        -0.1283
     13 C8          1.1810   -2.8469   -3.5187 C.3       1 <0>        -0.1381
     14 C9          1.8254   -4.1576   -3.0720 C.3       1 <0>         0.1282
     15 H4          1.3672   -4.9946   -3.6025 H         1 <0>         0.0892
     16 C10         3.3318   -4.1139   -3.3813 C.3       1 <0>        -0.1271
     17 C11         3.9804   -4.8455   -2.1906 C.3       1 <0>        -0.1274
     18 C12         2.9841   -4.6485   -1.0361 C.3       1 <0>         0.1178
     19 H5          2.9153   -5.5633   -0.4434 H         1 <0>         0.1090
     20 N2          1.6709   -4.3330   -1.6256 N.am      1 <0>        -0.5813
     21 C13         0.5344   -4.2227   -0.9172 C.2       1 <0>         0.5248
     22 O2          0.5653   -4.5245    0.2612 O.2       1 <0>        -0.5114
     23 C14         3.4467   -3.5098   -0.1590 C.2       1 <0>         0.5202
     24 O3          2.7515   -2.5249   -0.0270 O.2       1 <0>        -0.5284
     25 N3          4.6323   -3.5880    0.4773 N.am      1 <0>        -0.7206
     26 C15         5.0811   -2.4832    1.3283 C.3       1 <0>         0.2368
     27 C16         4.4942   -2.6409    2.7074 C.ar      1 <0>        -0.0897
     28 C17         4.4188   -3.8935    3.2873 C.ar      1 <0>        -0.0989
     29 C18         3.8804   -4.0382    4.5523 C.ar      1 <0>        -0.1158
     30 C19         3.4179   -2.9303    5.2375 C.ar      1 <0>        -0.1160
     31 C20         3.4941   -1.6776    4.6579 C.ar      1 <0>        -0.1209
     32 C21         4.0364   -1.5323    3.3947 C.ar      1 <0>        -0.1055
     33 C22         6.5854   -2.4972    1.4180 C.ar      1 <0>        -0.0949
     34 C23         7.2602   -3.6990    1.5244 C.ar      1 <0>        -0.1123
     35 C24         8.6401   -3.7118    1.6066 C.ar      1 <0>        -0.1120
     36 C25         9.3451   -2.5230    1.5820 C.ar      1 <0>        -0.1119
     37 C26         8.6702   -1.3214    1.4747 C.ar      1 <0>        -0.1127
     38 C27         7.2907   -1.3087    1.3881 C.ar      1 <0>        -0.1045
     39 C28        -2.3967   -4.2789   -3.3082 C.3       1 <0>        -0.1160
     40 C29        -2.5419   -4.7799   -4.7466 C.3       1 <0>         0.0730
     41 O4         -3.9282   -4.9105   -5.0678 O.3       1 <0>        -0.5752
     42 N4         -2.0065   -0.0593    1.4019 N.4       1 <0>        -0.4920
     43 C30        -3.3782   -0.5684    1.5330 C.3       1 <0>        -0.0583
     44 H6          0.6157    2.3429   -0.3516 H         1 <0>         0.0894
     45 H7         -1.1044    2.1657   -0.7737 H         1 <0>         0.0739
     46 H8         -0.6008    2.1500    0.9335 H         1 <0>         0.0581
     47 H9          0.2604    0.0620   -1.1150 H         1 <0>         0.1121
     48 H10         0.5310    0.0176    0.6437 H         1 <0>         0.1005
     49 H11        -0.6901   -1.7114   -2.0363 H         1 <0>         0.4104
     50 H12        -0.3515   -3.4157   -4.9071 H         1 <0>         0.0856
     51 H13        -0.8377   -2.1414   -3.7810 H         1 <0>         0.0702
     52 H14         1.7062   -2.4734   -4.4024 H         1 <0>         0.0884
     53 H15         1.2675   -2.1082   -2.7233 H         1 <0>         0.0726
     54 H16         3.5465   -4.6396   -4.3107 H         1 <0>         0.0949
     55 H17         3.6826   -3.0848   -3.4339 H         1 <0>         0.0812
     56 H18         4.1023   -5.9034   -2.4147 H         1 <0>         0.0945
     57 H19         4.9414   -4.3923   -1.9476 H         1 <0>         0.0910
     58 H20         5.1884   -4.3757    0.3718 H         1 <0>         0.4017
     59 H21         4.7515   -1.5370    0.8992 H         1 <0>         0.1010
     60 H22         4.7802   -4.7591    2.7520 H         1 <0>         0.1154
     61 H23         3.8209   -5.0168    5.0051 H         1 <0>         0.1233
     62 H24         2.9966   -3.0434    6.2255 H         1 <0>         0.1227
     63 H25         3.1324   -0.8120    5.1931 H         1 <0>         0.1212
     64 H26         4.0994   -0.5532    2.9433 H         1 <0>         0.1178
     65 H27         6.7094   -4.6277    1.5436 H         1 <0>         0.1180
     66 H28         9.1673   -4.6507    1.6904 H         1 <0>         0.1268
     67 H29        10.4231   -2.5330    1.6469 H         1 <0>         0.1266
     68 H30         9.2210   -0.3925    1.4558 H         1 <0>         0.1269
     69 H31         6.7637   -0.3701    1.3006 H         1 <0>         0.1221
     70 H32        -2.8620   -4.9911   -2.6267 H         1 <0>         0.0778
     71 H33        -2.8853   -3.3095   -3.2100 H         1 <0>         0.0724
     72 H34        -2.0765   -4.0677   -5.4280 H         1 <0>         0.0502
     73 H35        -2.0532   -5.7492   -4.8448 H         1 <0>         0.0488
     74 H36        -4.0956   -5.2247   -5.9669 H         1 <0>         0.3871
     75 H37        -1.4126   -0.5151    2.0784 H         1 <0>         0.4362
     76 H38        -4.0020   -0.1379    0.7496 H         1 <0>         0.1216
     77 H39        -3.3735   -1.6542    1.4380 H         1 <0>         0.1388
     78 H40        -3.7771   -0.2908    2.5087 H         1 <0>         0.1304
     79 H41        -2.0002    0.9363    1.5655 H         1 <0>         0.4323
@<TRIPOS>BOND
     1    1    2 1
     2    1   44 1
     3    1   45 1
     4    1   46 1
     5    2    3 1
     6    2   47 1
     7    2   48 1
     8    3    4 1
     9    3    5 1
    10    3   42 1
    11    5    6 2
    12    5    7 am
    13    7    8 1
    14    7   49 1
    15    8    9 1
    16    8   21 1
    17    8   10 1
    18   10   11 1
    19   10   12 1
    20   10   39 1
    21   12   13 1
    22   12   50 1
    23   12   51 1
    24   13   14 1
    25   13   52 1
    26   13   53 1
    27   14   15 1
    28   14   20 1
    29   14   16 1
    30   16   17 1
    31   16   54 1
    32   16   55 1
    33   17   18 1
    34   17   56 1
    35   17   57 1
    36   18   19 1
    37   18   20 1
    38   18   23 1
    39   20   21 am
    40   21   22 2
    41   23   24 2
    42   23   25 am
    43   25   26 1
    44   25   58 1
    45   26   27 1
    46   26   33 1
    47   26   59 1
    48   27   32 ar
    49   27   28 ar
    50   28   29 ar
    51   28   60 1
    52   29   30 ar
    53   29   61 1
    54   30   31 ar
    55   30   62 1
    56   31   32 ar
    57   31   63 1
    58   32   64 1
    59   33   38 ar
    60   33   34 ar
    61   34   35 ar
    62   34   65 1
    63   35   36 ar
    64   35   66 1
    65   36   37 ar
    66   36   67 1
    67   37   38 ar
    68   37   68 1
    69   38   69 1
    70   39   40 1
    71   39   70 1
    72   39   71 1
    73   40   41 1
    74   40   72 1
    75   40   73 1
    76   41   74 1
    77   42   43 1
    78   42   75 1
    79   42   79 1
    80   43   76 1
    81   43   77 1
    82   43   78 1
@<TRIPOS>MOLECULE
CHEMBL578038
   84    87     0     0     0
SMALL
USER_CHARGES

@<TRIPOS>ATOM
      1 C1         -0.0187    1.5258    0.0104 C.3       1 <0>        -0.1713
      2 C2          0.0021   -0.0041    0.0020 C.3       1 <0>        -0.1433
      3 C3          0.7182   -0.4975   -1.2568 C.3       1 <0>         0.0122
      4 H1          1.7103   -0.0491   -1.3098 H         1 <0>         0.1635
      5 C4          0.8473   -1.9981   -1.2057 C.2       1 <0>         0.5032
      6 O1          0.0734   -2.6948   -1.8275 O.2       1 <0>        -0.4902
      7 N1          1.8227   -2.5659   -0.4690 N.am      1 <0>        -0.6954
      8 C5          1.9479   -4.0218   -0.4195 C.3       1 <0>         0.1524
      9 H2          1.6698   -4.4194   -1.4083 H         1 <0>         0.1274
     10 C6          3.3875   -4.4329   -0.1289 C.3       1 <0>        -0.0968
     11 H3          3.4014   -5.4428    0.2890 H         1 <0>         0.1118
     12 C7          4.0513   -3.4639    0.8436 C.3       1 <0>        -0.1298
     13 C8          3.2649   -3.3608    2.1453 C.3       1 <0>        -0.1422
     14 C9          2.6383   -4.7114    2.4861 C.3       1 <0>         0.1298
     15 H4          3.2846   -5.5181    2.1349 H         1 <0>         0.0859
     16 C10         2.4620   -4.8188    4.0106 C.3       1 <0>        -0.1286
     17 C11         1.1277   -5.5699    4.1817 C.3       1 <0>        -0.1287
     18 C12         0.3420   -5.2440    2.9009 C.3       1 <0>         0.1171
     19 H5         -0.2003   -6.1291    2.5612 H         1 <0>         0.1110
     20 N2          1.3122   -4.8256    1.8736 N.am      1 <0>        -0.5810
     21 C13         0.9940   -4.5869    0.5900 C.2       1 <0>         0.5176
     22 O2         -0.1354   -4.8528    0.2235 O.2       1 <0>        -0.5020
     23 C14        -0.6347   -4.1264    3.1785 C.2       1 <0>         0.5197
     24 O3         -0.5422   -3.0770    2.5776 O.2       1 <0>        -0.5320
     25 N3         -1.6093   -4.2952    4.0940 N.am      1 <0>        -0.7175
     26 C15        -2.5570   -3.2109    4.3633 C.3       1 <0>         0.2385
     27 C16        -3.6840   -3.2692    3.3647 C.ar      1 <0>        -0.0915
     28 C17        -4.2126   -4.4901    2.9894 C.ar      1 <0>        -0.1001
     29 C18        -5.2464   -4.5436    2.0733 C.ar      1 <0>        -0.1158
     30 C19        -5.7521   -3.3761    1.5329 C.ar      1 <0>        -0.1148
     31 C20        -5.2242   -2.1550    1.9088 C.ar      1 <0>        -0.1197
     32 C21        -4.1932   -2.1013    2.8281 C.ar      1 <0>        -0.1052
     33 C22        -3.1117   -3.3630    5.7562 C.ar      1 <0>        -0.0984
     34 C23        -3.4244   -4.6187    6.2424 C.ar      1 <0>        -0.1131
     35 C24        -3.9332   -4.7582    7.5201 C.ar      1 <0>        -0.1113
     36 C25        -4.1289   -3.6421    8.3118 C.ar      1 <0>        -0.1097
     37 C26        -3.8153   -2.3865    7.8260 C.ar      1 <0>        -0.1115
     38 C27        -3.3024   -2.2473    6.5499 C.ar      1 <0>        -0.1044
     39 C28         4.1804   -4.4439   -1.4441 C.3       1 <0>        -0.1487
     40 C29         5.5918   -4.9743   -1.1843 C.3       1 <0>        -0.0146
     41 N4          6.3502   -4.9849   -2.4423 N.4       1 <0>        -0.5105
     42 C30         7.7054   -5.4942   -2.1929 C.3       1 <0>        -0.0102
     43 C31         8.4953   -5.5051   -3.5032 C.3       1 <0>        -0.1919
     44 N5         -0.0570   -0.1128   -2.4438 N.4       1 <0>        -0.6226
     45 H6          1.0039    1.9031    0.0027 H         1 <0>         0.0749
     46 H7         -0.5459    1.8868   -0.8726 H         1 <0>         0.0568
     47 H8         -0.5289    1.8773    0.9072 H         1 <0>         0.0917
     48 H9          0.5293   -0.3651    0.8851 H         1 <0>         0.1172
     49 H10        -1.0205   -0.3814    0.0098 H         1 <0>         0.1010
     50 H11         2.4416   -2.0086    0.0283 H         1 <0>         0.4112
     51 H12         5.0618   -3.8273    1.0713 H         1 <0>         0.0827
     52 H13         4.1448   -2.4779    0.3880 H         1 <0>         0.0739
     53 H14         3.9408   -3.0664    2.9532 H         1 <0>         0.0934
     54 H15         2.4829   -2.6087    2.0531 H         1 <0>         0.0782
     55 H16         3.2775   -5.3915    4.4502 H         1 <0>         0.0961
     56 H17         2.4033   -3.8293    4.4604 H         1 <0>         0.0833
     57 H18         1.3017   -6.6412    4.2619 H         1 <0>         0.0959
     58 H19         0.5973   -5.2013    5.0597 H         1 <0>         0.0943
     59 H20        -1.6833   -5.1345    4.5746 H         1 <0>         0.4026
     60 H21        -2.0456   -2.2520    4.2786 H         1 <0>         0.1010
     61 H22        -3.8175   -5.4023    3.4116 H         1 <0>         0.1148
     62 H23        -5.6588   -5.4975    1.7796 H         1 <0>         0.1238
     63 H24        -6.5593   -3.4179    0.8166 H         1 <0>         0.1237
     64 H25        -5.6190   -1.2429    1.4863 H         1 <0>         0.1221
     65 H26        -3.7832   -1.1472    3.1246 H         1 <0>         0.1178
     66 H27        -3.2715   -5.4907    5.6238 H         1 <0>         0.1170
     67 H28        -4.1782   -5.7392    7.8996 H         1 <0>         0.1277
     68 H29        -4.5271   -3.7510    9.3098 H         1 <0>         0.1281
     69 H30        -3.9685   -1.5144    8.4445 H         1 <0>         0.1282
     70 H31        -3.0540   -1.2667    6.1717 H         1 <0>         0.1220
     71 H32         3.6776   -5.0873   -2.1661 H         1 <0>         0.0969
     72 H33         4.2405   -3.4304   -1.8407 H         1 <0>         0.0905
     73 H34         6.0946   -4.3309   -0.4623 H         1 <0>         0.1365
     74 H35         5.5318   -5.9879   -0.7878 H         1 <0>         0.1371
     75 H36         5.8848   -5.5805   -3.1107 H         1 <0>         0.4295
     76 H37         8.2082   -4.8507   -1.4709 H         1 <0>         0.1322
     77 H38         7.6453   -6.5077   -1.7963 H         1 <0>         0.1332
     78 H39         7.9925   -6.1486   -4.2252 H         1 <0>         0.0820
     79 H40         8.5553   -4.4916   -3.8997 H         1 <0>         0.0807
     80 H41         9.5008   -5.8830   -3.3181 H         1 <0>         0.1104
     81 H42        -0.1435    0.8919   -2.4780 H         1 <0>         0.4437
     82 H43         0.4152   -0.4382   -3.2739 H         1 <0>         0.4386
     83 H44         6.4058   -4.0467   -2.8094 H         1 <0>         0.4267
     84 H45        -0.9754   -0.5279   -2.3947 H         1 <0>         0.4454
@<TRIPOS>BOND
     1    1    2 1
     2    1   45 1
     3    1   46 1
     4    1   47 1
     5    2    3 1
     6    2   48 1
     7    2   49 1
     8    3    4 1
     9    3    5 1
    10    3   44 1
    11    5    6 2
    12    5    7 am
    13    7    8 1
    14    7   50 1
    15    8    9 1
    16    8   21 1
    17    8   10 1
    18   10   11 1
    19   10   12 1
    20   10   39 1
    21   12   13 1
    22   12   51 1
    23   12   52 1
    24   13   14 1
    25   13   53 1
    26   13   54 1
    27   14   15 1
    28   14   20 1
    29   14   16 1
    30   16   17 1
    31   16   55 1
    32   16   56 1
    33   17   18 1
    34   17   57 1
    35   17   58 1
    36   18   19 1
    37   18   20 1
    38   18   23 1
    39   20   21 am
    40   21   22 2
    41   23   24 2
    42   23   25 am
    43   25   26 1
    44   25   59 1
    45   26   27 1
    46   26   33 1
    47   26   60 1
    48   27   32 ar
    49   27   28 ar
    50   28   29 ar
    51   28   61 1
    52   29   30 ar
    53   29   62 1
    54   30   31 ar
    55   30   63 1
    56   31   32 ar
    57   31   64 1
    58   32   65 1
    59   33   38 ar
    60   33   34 ar
    61   34   35 ar
    62   34   66 1
    63   35   36 ar
    64   35   67 1
    65   36   37 ar
    66   36   68 1
    67   37   38 ar
    68   37   69 1
    69   38   70 1
    70   39   40 1
    71   39   71 1
    72   39   72 1
    73   40   41 1
    74   40   73 1
    75   40   74 1
    76   41   42 1
    77   41   75 1
    78   41   83 1
    79   42   43 1
    80   42   76 1
    81   42   77 1
    82   43   78 1
    83   43   79 1
    84   43   80 1
    85   44   81 1
    86   44   82 1
    87   44   84 1
@<TRIPOS>MOLECULE
CHEMBL575594
   80    83     0     0     0
SMALL
USER_CHARGES

@<TRIPOS>ATOM
      1 C1         -0.0187    1.5258    0.0104 C.3       1 <0>        -0.1716
      2 C2          0.0021   -0.0041    0.0020 C.3       1 <0>        -0.1434
      3 C3          0.7182   -0.4975   -1.2568 C.3       1 <0>         0.0120
      4 H1          1.7103   -0.0491   -1.3098 H         1 <0>         0.1644
      5 C4          0.8473   -1.9981   -1.2057 C.2       1 <0>         0.5040
      6 O1          0.0734   -2.6948   -1.8275 O.2       1 <0>        -0.4891
      7 N1          1.8227   -2.5659   -0.4690 N.am      1 <0>        -0.6970
      8 C5          1.9479   -4.0218   -0.4195 C.3       1 <0>         0.1547
      9 H2          1.6698   -4.4194   -1.4083 H         1 <0>         0.1313
     10 C6          3.3875   -4.4329   -0.1289 C.3       1 <0>        -0.1135
     11 H3          3.4014   -5.4428    0.2890 H         1 <0>         0.1186
     12 C7          4.0513   -3.4639    0.8436 C.3       1 <0>        -0.1273
     13 C8          3.2649   -3.3608    2.1453 C.3       1 <0>        -0.1419
     14 C9          2.6383   -4.7114    2.4861 C.3       1 <0>         0.1291
     15 H4          3.2846   -5.5181    2.1349 H         1 <0>         0.0857
     16 C10         2.4620   -4.8188    4.0106 C.3       1 <0>        -0.1280
     17 C11         1.1277   -5.5699    4.1817 C.3       1 <0>        -0.1280
     18 C12         0.3420   -5.2440    2.9009 C.3       1 <0>         0.1168
     19 H5         -0.2003   -6.1291    2.5612 H         1 <0>         0.1124
     20 N2          1.3122   -4.8256    1.8736 N.am      1 <0>        -0.5800
     21 C13         0.9940   -4.5869    0.5900 C.2       1 <0>         0.5199
     22 O2         -0.1354   -4.8528    0.2235 O.2       1 <0>        -0.5013
     23 C14        -0.6347   -4.1264    3.1785 C.2       1 <0>         0.5199
     24 O3         -0.5422   -3.0770    2.5776 O.2       1 <0>        -0.5320
     25 N3         -1.6093   -4.2952    4.0940 N.am      1 <0>        -0.7169
     26 C15        -2.5570   -3.2109    4.3633 C.3       1 <0>         0.2382
     27 C16        -3.8407   -3.7880    4.9018 C.ar      1 <0>        -0.0988
     28 C17        -3.8031   -4.8321    5.8069 C.ar      1 <0>        -0.1124
     29 C18        -4.9807   -5.3615    6.3008 C.ar      1 <0>        -0.1115
     30 C19        -6.1959   -4.8463    5.8900 C.ar      1 <0>        -0.1096
     31 C20        -6.2335   -3.8016    4.9857 C.ar      1 <0>        -0.1117
     32 C21        -5.0558   -3.2694    4.4950 C.ar      1 <0>        -0.1044
     33 C22        -1.9655   -2.2674    5.3787 C.ar      1 <0>        -0.0906
     34 C23        -1.2460   -2.7660    6.4486 C.ar      1 <0>        -0.1044
     35 C24        -0.7034   -1.9005    7.3801 C.ar      1 <0>        -0.1170
     36 C25        -0.8799   -0.5366    7.2413 C.ar      1 <0>        -0.1149
     37 C26        -1.5986   -0.0380    6.1709 C.ar      1 <0>        -0.1167
     38 C27        -2.1376   -0.9031    5.2372 C.ar      1 <0>        -0.1041
     39 C28         4.1804   -4.4439   -1.4441 C.3       1 <0>         0.0983
     40 N4          5.5318   -4.9518   -1.1954 N.pl3     1 <0>        -0.6975
     41 C29         6.4251   -5.0527   -2.2264 C.cat     1 <0>         0.7455
     42 N5          7.6538   -5.5145   -2.0002 N.pl3     1 <0>        -0.7884
     43 N6          6.0662   -4.6892   -3.4565 N.pl3     1 <0>        -0.7927
     44 N7         -0.0570   -0.1128   -2.4438 N.4       1 <0>        -0.6225
     45 H6          1.0039    1.9031    0.0027 H         1 <0>         0.0751
     46 H7         -0.5459    1.8868   -0.8726 H         1 <0>         0.0568
     47 H8         -0.5289    1.8773    0.9072 H         1 <0>         0.0919
     48 H9          0.5293   -0.3651    0.8851 H         1 <0>         0.1179
     49 H10        -1.0205   -0.3814    0.0098 H         1 <0>         0.1007
     50 H11         2.4416   -2.0086    0.0283 H         1 <0>         0.4124
     51 H12         5.0618   -3.8273    1.0713 H         1 <0>         0.0811
     52 H13         4.1448   -2.4779    0.3880 H         1 <0>         0.0770
     53 H14         3.9408   -3.0664    2.9532 H         1 <0>         0.0951
     54 H15         2.4829   -2.6087    2.0531 H         1 <0>         0.0802
     55 H16         3.2775   -5.3915    4.4502 H         1 <0>         0.0963
     56 H17         2.4033   -3.8293    4.4604 H         1 <0>         0.0842
     57 H18         1.3017   -6.6412    4.2619 H         1 <0>         0.0964
     58 H19         0.5973   -5.2013    5.0597 H         1 <0>         0.0931
     59 H20        -1.6833   -5.1345    4.5746 H         1 <0>         0.4027
     60 H21        -2.7613   -2.6692    3.4398 H         1 <0>         0.1000
     61 H22        -2.8537   -5.2346    6.1278 H         1 <0>         0.1170
     62 H23        -4.9513   -6.1777    7.0074 H         1 <0>         0.1279
     63 H24        -7.1159   -5.2604    6.2754 H         1 <0>         0.1282
     64 H25        -7.1830   -3.3993    4.6645 H         1 <0>         0.1280
     65 H26        -5.0852   -2.4507    3.7913 H         1 <0>         0.1215
     66 H27        -1.1081   -3.8316    6.5570 H         1 <0>         0.1148
     67 H28        -0.1419   -2.2901    8.2163 H         1 <0>         0.1239
     68 H29        -0.4566    0.1395    7.9694 H         1 <0>         0.1243
     69 H30        -1.7368    1.0277    6.0627 H         1 <0>         0.1234
     70 H31        -2.6959   -0.5134    4.3989 H         1 <0>         0.1178
     71 H32         3.6776   -5.0873   -2.1661 H         1 <0>         0.1000
     72 H33         4.2405   -3.4304   -1.8407 H         1 <0>         0.0941
     73 H34         5.7932   -5.2165   -0.2995 H         1 <0>         0.4373
     74 H35         8.2872   -5.5861   -2.7313 H         1 <0>         0.4445
     75 H36         5.1714   -4.3529   -3.6212 H         1 <0>         0.4373
     76 H37         6.6996   -4.7608   -4.1876 H         1 <0>         0.4438
     77 H38        -0.1435    0.8919   -2.4780 H         1 <0>         0.4440
     78 H39         0.4152   -0.4382   -3.2739 H         1 <0>         0.4388
     79 H40         7.9152   -5.7792   -1.1044 H         1 <0>         0.4430
     80 H41        -0.9754   -0.5279   -2.3947 H         1 <0>         0.4454
@<TRIPOS>BOND
     1    1    2 1
     2    1   45 1
     3    1   46 1
     4    1   47 1
     5    2    3 1
     6    2   48 1
     7    2   49 1
     8    3    4 1
     9    3    5 1
    10    3   44 1
    11    5    6 2
    12    5    7 am
    13    7    8 1
    14    7   50 1
    15    8    9 1
    16    8   21 1
    17    8   10 1
    18   10   11 1
    19   10   12 1
    20   10   39 1
    21   12   13 1
    22   12   51 1
    23   12   52 1
    24   13   14 1
    25   13   53 1
    26   13   54 1
    27   14   15 1
    28   14   20 1
    29   14   16 1
    30   16   17 1
    31   16   55 1
    32   16   56 1
    33   17   18 1
    34   17   57 1
    35   17   58 1
    36   18   19 1
    37   18   20 1
    38   18   23 1
    39   20   21 am
    40   21   22 2
    41   23   24 2
    42   23   25 am
    43   25   26 1
    44   25   59 1
    45   26   27 1
    46   26   33 1
    47   26   60 1
    48   27   32 ar
    49   27   28 ar
    50   28   29 ar
    51   28   61 1
    52   29   30 ar
    53   29   62 1
    54   30   31 ar
    55   30   63 1
    56   31   32 ar
    57   31   64 1
    58   32   65 1
    59   33   38 ar
    60   33   34 ar
    61   34   35 ar
    62   34   66 1
    63   35   36 ar
    64   35   67 1
    65   36   37 ar
    66   36   68 1
    67   37   38 ar
    68   37   69 1
    69   38   70 1
    70   39   40 1
    71   39   71 1
    72   39   72 1
    73   40   41 1
    74   40   73 1
    75   41   42 2
    76   41   43 1
    77   42   74 1
    78   42   79 1
    79   43   75 1
    80   43   76 1
    81   44   77 1
    82   44   78 1
    83   44   80 1
@<TRIPOS>MOLECULE
CHEMBL426052
   58    59     0     0     0
SMALL
USER_CHARGES

@<TRIPOS>ATOM
      1 C1         -0.1585    2.3246    1.8923 C.3       1 <0>        -0.1809
      2 C2         -0.2925    0.9291    1.2793 C.3       1 <0>         0.0099
      3 H1         -0.0042    0.9646    0.2287 H         1 <0>         0.1657
      4 C3          0.6066   -0.0310    2.0148 C.2       1 <0>         0.5021
      5 O1          0.1445   -0.7681    2.8599 O.2       1 <0>        -0.5184
      6 N1          1.9240   -0.0706    1.7334 N.am      1 <0>        -0.6809
      7 C4          2.7980   -1.0040    2.4484 C.3       1 <0>         0.1368
      8 H2          2.4548   -1.1071    3.4778 H         1 <0>         0.1177
      9 C5          2.7591   -2.3692    1.7587 C.3       1 <0>        -0.1019
     10 C6          1.3556   -2.9650    1.8857 C.3       1 <0>        -0.1368
     11 C7          3.1108   -2.2032    0.2789 C.3       1 <0>        -0.1515
     12 C8          4.2098   -0.4770    2.4400 C.2       1 <0>         0.5357
     13 O2          4.5572    0.3128    1.5876 O.2       1 <0>        -0.5131
     14 N2          5.0864   -0.8832    3.3797 N.am      1 <0>        -0.5959
     15 C9          4.8359   -1.9199    4.3975 C.3       1 <0>         0.0911
     16 C10         6.2414   -2.4446    4.7834 C.3       1 <0>        -0.1333
     17 C11         7.0846   -1.1431    4.7325 C.3       1 <0>        -0.1265
     18 C12         6.4530   -0.3704    3.5555 C.3       1 <0>         0.1201
     19 H3          6.4226    0.6942    3.7873 H         1 <0>         0.1052
     20 C13         7.2528   -0.6017    2.2993 C.2       1 <0>         0.5074
     21 O3          6.7379   -1.1426    1.3436 O.2       1 <0>        -0.5162
     22 N3          8.5401   -0.2075    2.2378 N.am      1 <0>        -0.7248
     23 C14         9.3175   -0.4323    1.0166 C.3       1 <0>         0.1657
     24 C15        10.7158    0.0964    1.2069 C.ar      1 <0>        -0.1155
     25 C16        11.0091    1.4077    0.8822 C.ar      1 <0>        -0.1009
     26 C17        12.2918    1.8927    1.0567 C.ar      1 <0>        -0.1204
     27 C18        13.2811    1.0665    1.5563 C.ar      1 <0>        -0.1081
     28 C19        12.9876   -0.2445    1.8818 C.ar      1 <0>        -0.1200
     29 C20        11.7039   -0.7283    1.7113 C.ar      1 <0>        -0.1006
     30 N4         -1.6859    0.4775    1.3897 N.4       1 <0>        -0.6208
     31 H4          0.8754    2.6597    1.8104 H         1 <0>         0.1125
     32 H5         -0.8088    3.0190    1.3603 H         1 <0>         0.1003
     33 H6         -0.4468    2.2891    2.9429 H         1 <0>         0.0914
     34 H7          2.2936    0.5189    1.0575 H         1 <0>         0.4198
     35 H8          3.4809   -3.0356    2.2311 H         1 <0>         0.0920
     36 H9          1.3280   -3.9375    1.3944 H         1 <0>         0.0616
     37 H10         1.1052   -3.0832    2.9399 H         1 <0>         0.0652
     38 H11         0.6339   -2.2986    1.4133 H         1 <0>         0.0453
     39 H12         4.1106   -1.7787    0.1885 H         1 <0>         0.0724
     40 H13         3.0831   -3.1757   -0.2124 H         1 <0>         0.0637
     41 H14         2.3890   -1.5368   -0.1934 H         1 <0>         0.0492
     42 H15         4.3410   -1.4864    5.2666 H         1 <0>         0.0806
     43 H16         4.2323   -2.7249    3.9785 H         1 <0>         0.0832
     44 H17         6.2379   -2.8689    5.7874 H         1 <0>         0.0970
     45 H18         6.6006   -3.1716    4.0550 H         1 <0>         0.0821
     46 H19         6.9866   -0.5836    5.6628 H         1 <0>         0.0950
     47 H20         8.1306   -1.3692    4.5255 H         1 <0>         0.0922
     48 H21         8.9519    0.2251    3.0022 H         1 <0>         0.4018
     49 H22         9.3588   -1.5005    0.8037 H         1 <0>         0.0764
     50 H23         8.8433    0.0862    0.1834 H         1 <0>         0.0762
     51 H24        10.2362    2.0532    0.4919 H         1 <0>         0.1228
     52 H25        12.5210    2.9170    0.8024 H         1 <0>         0.1258
     53 H26        14.2834    1.4452    1.6920 H         1 <0>         0.1259
     54 H27        13.7606   -0.8901    2.2718 H         1 <0>         0.1263
     55 H28        11.4738   -1.7515    1.9692 H         1 <0>         0.1235
     56 H29        -1.7743   -0.4428    0.9855 H         1 <0>         0.4404
     57 H30        -1.9528    0.4447    2.3622 H         1 <0>         0.4424
     58 H31        -2.2879    1.1203    0.8973 H         1 <0>         0.4439
@<TRIPOS>BOND
     1    1    2 1
     2    1   31 1
     3    1   32 1
     4    1   33 1
     5    2    3 1
     6    2    4 1
     7    2   30 1
     8    4    5 2
     9    4    6 am
    10    6    7 1
    11    6   34 1
    12    7    8 1
    13    7    9 1
    14    7   12 1
    15    9   10 1
    16    9   11 1
    17    9   35 1
    18   10   36 1
    19   10   37 1
    20   10   38 1
    21   11   39 1
    22   11   40 1
    23   11   41 1
    24   12   13 2
    25   12   14 am
    26   14   18 1
    27   14   15 1
    28   15   16 1
    29   15   42 1
    30   15   43 1
    31   16   17 1
    32   16   44 1
    33   16   45 1
    34   17   18 1
    35   17   46 1
    36   17   47 1
    37   18   19 1
    38   18   20 1
    39   20   21 2
    40   20   22 am
    41   22   23 1
    42   22   48 1
    43   23   24 1
    44   23   49 1
    45   23   50 1
    46   24   29 ar
    47   24   25 ar
    48   25   26 ar
    49   25   51 1
    50   26   27 ar
    51   26   52 1
    52   27   28 ar
    53   27   53 1
    54   28   29 ar
    55   28   54 1
    56   29   55 1
    57   30   56 1
    58   30   57 1
    59   30   58 1
@<TRIPOS>MOLECULE
CHEMBL458540
   74    77     0     0     0
SMALL
USER_CHARGES

@<TRIPOS>ATOM
      1 C1         -1.5869    2.4100   -1.2432 C.3       1 <0>        -0.1826
      2 C2         -0.9396    1.0359   -1.0594 C.3       1 <0>         0.0048
      3 H1         -0.1504    1.1034   -0.3106 H         1 <0>         0.1670
      4 C3         -1.9813    0.0469   -0.6035 C.2       1 <0>         0.5054
      5 O1         -2.2225   -0.9331   -1.2761 O.2       1 <0>        -0.5197
      6 N1         -2.6449    0.2514    0.5516 N.am      1 <0>        -0.6833
      7 C4         -3.6575   -0.7101    0.9947 C.3       1 <0>         0.1385
      8 H2         -4.1801   -1.1132    0.1272 H         1 <0>         0.1160
      9 C5         -4.6448   -0.0188    1.8994 C.2       1 <0>         0.5287
     10 O2         -4.2698    0.8582    2.6486 O.2       1 <0>        -0.5169
     11 N2         -5.9444   -0.3750    1.8759 N.am      1 <0>        -0.6021
     12 C6         -6.5150   -1.4889    1.0979 C.3       1 <0>         0.0876
     13 C7         -7.9935   -1.0924    0.8674 C.3       1 <0>        -0.1297
     14 C8         -8.3542   -0.4010    2.2055 C.3       1 <0>        -0.0990
     15 H3         -9.1877    0.2957    2.1157 H         1 <0>         0.1096
     16 C9         -7.0244    0.2792    2.6265 C.3       1 <0>         0.1313
     17 H4         -7.0520    1.3485    2.4169 H         1 <0>         0.0916
     18 C10        -6.8441   -0.0020    4.1278 C.3       1 <0>         0.1421
     19 H5         -5.9311   -0.5740    4.2930 H         1 <0>         0.0979
     20 C11        -8.0698   -0.8235    4.5763 C.3       1 <0>        -0.1371
     21 C12        -8.5906   -1.4944    3.2737 C.3       1 <0>        -0.1197
     22 N3         -6.7861    1.2594    4.8706 N.am      1 <0>        -0.7154
     23 C13        -6.1528    1.3131    6.0591 C.2       1 <0>         0.5736
     24 O3         -5.6294    0.3143    6.5149 O.2       1 <0>        -0.5280
     25 C14        -6.0945    2.5813    6.8059 C.ar      1 <0>        -0.1404
     26 C15        -6.5830    3.7553    6.2454 C.ar      1 <0>        -0.0443
     27 C16        -6.5284    4.9495    6.9476 C.ar      1 <0>        -0.1725
     28 C17        -5.9944    5.0190    8.2123 C.ar      1 <0>         0.1491
     29 C18        -5.4827    3.8652    8.8360 C.ar      1 <0>        -0.0918
     30 C19        -5.5273    2.6265    8.1519 C.ar      1 <0>         0.0112
     31 C20        -5.0242    1.4760    8.7715 C.ar      1 <0>        -0.1147
     32 C21        -4.5029    1.5606   10.0282 C.ar      1 <0>        -0.1001
     33 C22        -4.4634    2.7766   10.7059 C.ar      1 <0>        -0.1097
     34 C23        -4.9326    3.9169   10.1276 C.ar      1 <0>        -0.1016
     35 F1         -5.9598    6.2033    8.8614 F         1 <0>        -0.1252
     36 C24        -2.9792   -1.8503    1.7568 C.3       1 <0>        -0.0696
     37 C25        -2.1399   -1.2726    2.8981 C.3       1 <0>        -0.1468
     38 C26        -4.0456   -2.7855    2.3306 C.3       1 <0>        -0.1554
     39 C27        -2.0739   -2.6331    0.8036 C.3       1 <0>        -0.1312
     40 N4         -0.3665    0.5899   -2.3362 N.4       1 <0>        -0.4939
     41 C28         0.7306    1.4879   -2.7209 C.3       1 <0>        -0.0504
     42 H6         -0.8335    3.1254   -1.5729 H         1 <0>         0.1000
     43 H7         -2.3762    2.3426   -1.9919 H         1 <0>         0.0904
     44 H8         -2.0122    2.7410   -0.2958 H         1 <0>         0.1110
     45 H9         -2.4520    1.0352    1.0895 H         1 <0>         0.4181
     46 H10        -5.9963   -1.5910    0.1446 H         1 <0>         0.0803
     47 H11        -6.4551   -2.4178    1.6649 H         1 <0>         0.0843
     48 H12        -8.0845   -0.3970    0.0330 H         1 <0>         0.0790
     49 H13        -8.6126   -1.9749    0.7060 H         1 <0>         0.0947
     50 H14        -7.7778   -1.5746    5.3102 H         1 <0>         0.0786
     51 H15        -8.8393   -0.1685    4.9847 H         1 <0>         0.0761
     52 H16        -9.6501   -1.7395    3.3467 H         1 <0>         0.0818
     53 H17        -8.0021   -2.3845    3.0512 H         1 <0>         0.0733
     54 H18        -7.2035    2.0560    4.5070 H         1 <0>         0.3985
     55 H19        -7.0089    3.7374    5.2531 H         1 <0>         0.1346
     56 H20        -6.9150    5.8478    6.4893 H         1 <0>         0.1436
     57 H21        -5.0493    0.5269    8.2568 H         1 <0>         0.1677
     58 H22        -4.1156    0.6723   10.5050 H         1 <0>         0.1303
     59 H23        -4.0458    2.8178   11.7010 H         1 <0>         0.1308
     60 H24        -4.8953    4.8531   10.6648 H         1 <0>         0.1350
     61 H25        -2.7849   -0.7150    3.5772 H         1 <0>         0.0691
     62 H26        -1.6567   -2.0850    3.4410 H         1 <0>         0.0648
     63 H27        -1.3802   -0.6064    2.4893 H         1 <0>         0.0507
     64 H28        -4.5919   -3.2579    1.5142 H         1 <0>         0.0648
     65 H29        -3.5667   -3.5526    2.9391 H         1 <0>         0.0725
     66 H30        -4.7378   -2.2122    2.9473 H         1 <0>         0.0622
     67 H31        -1.3142   -1.9669    0.3948 H         1 <0>         0.0470
     68 H32        -1.5907   -3.4455    1.3465 H         1 <0>         0.0619
     69 H33        -2.6719   -3.0447   -0.0095 H         1 <0>         0.0652
     70 H34        -0.0126   -0.3497   -2.2361 H         1 <0>         0.4377
     71 H35         0.3483    2.5029   -2.8291 H         1 <0>         0.1275
     72 H36         1.5016    1.4703   -1.9506 H         1 <0>         0.1268
     73 H37         1.1559    1.1570   -3.6683 H         1 <0>         0.1339
     74 H38        -1.0802    0.6062   -3.0493 H         1 <0>         0.4347
@<TRIPOS>BOND
     1    1    2 1
     2    1   42 1
     3    1   43 1
     4    1   44 1
     5    2    3 1
     6    2    4 1
     7    2   40 1
     8    4    5 2
     9    4    6 am
    10    6    7 1
    11    6   45 1
    12    7    8 1
    13    7    9 1
    14    7   36 1
    15    9   10 2
    16    9   11 am
    17   11   16 1
    18   11   12 1
    19   12   13 1
    20   12   46 1
    21   12   47 1
    22   13   14 1
    23   13   48 1
    24   13   49 1
    25   14   15 1
    26   14   21 1
    27   14   16 1
    28   16   17 1
    29   16   18 1
    30   18   19 1
    31   18   20 1
    32   18   22 1
    33   20   21 1
    34   20   50 1
    35   20   51 1
    36   21   52 1
    37   21   53 1
    38   22   23 am
    39   22   54 1
    40   23   24 2
    41   23   25 1
    42   25   30 ar
    43   25   26 ar
    44   26   27 ar
    45   26   55 1
    46   27   28 ar
    47   27   56 1
    48   28   29 ar
    49   28   35 1
    50   29   34 ar
    51   29   30 ar
    52   30   31 ar
    53   31   32 ar
    54   31   57 1
    55   32   33 ar
    56   32   58 1
    57   33   34 ar
    58   33   59 1
    59   34   60 1
    60   36   37 1
    61   36   38 1
    62   36   39 1
    63   37   61 1
    64   37   62 1
    65   37   63 1
    66   38   64 1
    67   38   65 1
    68   38   66 1
    69   39   67 1
    70   39   68 1
    71   39   69 1
    72   40   41 1
    73   40   70 1
    74   40   74 1
    75   41   71 1
    76   41   72 1
    77   41   73 1
@<TRIPOS>MOLECULE
CHEMBL458742
   78    81     0     0     0
SMALL
USER_CHARGES

@<TRIPOS>ATOM
      1 C1          1.7577    2.9700   -1.3412 C.3       1 <0>        -0.1823
      2 C2          1.4009    1.6552   -0.6448 C.3       1 <0>         0.0047
      3 H1          0.3798    1.7095   -0.2673 H         1 <0>         0.1667
      4 C3          1.5130    0.5192   -1.6286 C.2       1 <0>         0.5048
      5 O1          2.2866   -0.3909   -1.4184 O.2       1 <0>        -0.5200
      6 N1          0.7535    0.5144   -2.7420 N.am      1 <0>        -0.6824
      7 C4          0.8625   -0.5900   -3.6983 C.3       1 <0>         0.1388
      8 H2          1.8957   -0.9347   -3.7391 H         1 <0>         0.1149
      9 C5          0.4368   -0.1158   -5.0640 C.2       1 <0>         0.5258
     10 O2         -0.4718    0.6800   -5.1736 O.2       1 <0>        -0.5098
     11 N2          1.0659   -0.5760   -6.1635 N.am      1 <0>        -0.6022
     12 C6          2.1093   -1.6165   -6.1829 C.3       1 <0>         0.0882
     13 C7          2.9375   -1.3208   -7.4569 C.3       1 <0>        -0.1293
     14 C8          1.8449   -0.8550   -8.4508 C.3       1 <0>        -0.0991
     15 H3          2.2351   -0.2271   -9.2518 H         1 <0>         0.1088
     16 C9          0.8199   -0.1276   -7.5406 C.3       1 <0>         0.1332
     17 H4          0.9267    0.9541   -7.6228 H         1 <0>         0.0910
     18 C10        -0.5747   -0.5973   -7.9877 C.3       1 <0>         0.1419
     19 H5         -1.0782   -1.1059   -7.1655 H         1 <0>         0.0953
     20 C11        -0.3592   -1.5756   -9.1602 C.3       1 <0>        -0.1380
     21 C12         1.0917   -2.1020   -8.9705 C.3       1 <0>        -0.1190
     22 N3         -1.3717    0.5493   -8.4305 N.am      1 <0>        -0.7117
     23 C13        -2.7175    0.4924   -8.3853 C.2       1 <0>         0.5921
     24 O3         -3.2704   -0.5113   -7.9767 O.2       1 <0>        -0.5276
     25 C14        -3.5174    1.6432   -8.8298 C.ar      1 <0>        -0.1781
     26 C15        -3.9486    1.7604  -10.2221 C.ar      1 <0>         0.0156
     27 C16        -3.6178    0.7880  -11.1730 C.ar      1 <0>        -0.1205
     28 C17        -4.0397    0.9342  -12.4614 C.ar      1 <0>        -0.0903
     29 C18        -4.7954    2.0389  -12.8448 C.ar      1 <0>        -0.1267
     30 C19        -5.1342    3.0033  -11.9448 C.ar      1 <0>        -0.0868
     31 C20        -4.7172    2.8844  -10.6084 C.ar      1 <0>        -0.0856
     32 C21        -5.0497    3.8604   -9.6509 C.ar      1 <0>        -0.0398
     33 C22        -4.6418    3.7372   -8.3618 C.ar      1 <0>        -0.1991
     34 C23        -3.8866    2.6447   -7.9309 C.ar      1 <0>         0.1721
     35 O4         -3.5056    2.5590   -6.6330 O.3       1 <0>        -0.3023
     36 C24        -3.9165    3.6172   -5.7650 C.3       1 <0>         0.0273
     37 C25        -0.0420   -1.7410   -3.2534 C.3       1 <0>        -0.0693
     38 C26        -1.4725   -1.2273   -3.0784 C.3       1 <0>        -0.1467
     39 C27        -0.0223   -2.8442   -4.3134 C.3       1 <0>        -0.1543
     40 C28         0.4644   -2.3027   -1.9233 C.3       1 <0>        -0.1308
     41 N4          2.3251    1.4272    0.4740 N.4       1 <0>        -0.4940
     42 C29         2.1310    2.4703    1.4899 C.3       1 <0>        -0.0503
     43 H6          2.7788    2.9157   -1.7188 H         1 <0>         0.0904
     44 H7          1.0719    3.1392   -2.1714 H         1 <0>         0.1108
     45 H8          1.6766    3.7917   -0.6297 H         1 <0>         0.0996
     46 H9          0.1347    1.2423   -2.9101 H         1 <0>         0.4176
     47 H10         2.7378   -1.5405   -5.2955 H         1 <0>         0.0792
     48 H11         1.6572   -2.6063   -6.2453 H         1 <0>         0.0832
     49 H12         3.6620   -0.5270   -7.2748 H         1 <0>         0.0784
     50 H13         3.4326   -2.2225   -7.8173 H         1 <0>         0.0939
     51 H14        -1.0785   -2.3930   -9.1122 H         1 <0>         0.0774
     52 H15        -0.4380   -1.0522  -10.1131 H         1 <0>         0.0754
     53 H16         1.5184   -2.4453   -9.9129 H         1 <0>         0.0810
     54 H17         1.1055   -2.8987   -8.2268 H         1 <0>         0.0728
     55 H18        -0.9308    1.3496   -8.7563 H         1 <0>         0.3995
     56 H19        -3.0315   -0.0730  -10.8880 H         1 <0>         0.1238
     57 H20        -3.7839    0.1833  -13.1943 H         1 <0>         0.1280
     58 H21        -5.1176    2.1326  -13.8714 H         1 <0>         0.1283
     59 H22        -5.7203    3.8551  -12.2567 H         1 <0>         0.1320
     60 H23        -5.6362    4.7182   -9.9450 H         1 <0>         0.1367
     61 H24        -4.9122    4.5027   -7.6496 H         1 <0>         0.1357
     62 H25        -3.5461    3.4256   -4.7579 H         1 <0>         0.0993
     63 H26        -3.5117    4.5622   -6.1273 H         1 <0>         0.0575
     64 H27        -5.0050    3.6710   -5.7477 H         1 <0>         0.0587
     65 H28        -1.8333   -0.8271   -4.0260 H         1 <0>         0.0709
     66 H29        -2.1168   -2.0473   -2.7614 H         1 <0>         0.0638
     67 H30        -1.4865   -0.4414   -2.3233 H         1 <0>         0.0499
     68 H31         1.0070   -3.1507   -4.4997 H         1 <0>         0.0639
     69 H32        -0.5975   -3.6993   -3.9585 H         1 <0>         0.0722
     70 H33        -0.4624   -2.4683   -5.2371 H         1 <0>         0.0619
     71 H34         0.4504   -1.5168   -1.1682 H         1 <0>         0.0463
     72 H35        -0.1799   -3.1227   -1.6063 H         1 <0>         0.0614
     73 H36         1.4835   -2.6687   -2.0480 H         1 <0>         0.0650
     74 H37         2.1429    0.5224    0.8817 H         1 <0>         0.4377
     75 H38         2.3279    3.4476    1.0495 H         1 <0>         0.1273
     76 H39         1.1042    2.4361    1.8542 H         1 <0>         0.1266
     77 H40         2.8168    2.3010    2.3201 H         1 <0>         0.1338
     78 H41         3.2756    1.4588    0.1368 H         1 <0>         0.4348
@<TRIPOS>BOND
     1    1    2 1
     2    1   43 1
     3    1   44 1
     4    1   45 1
     5    2    3 1
     6    2    4 1
     7    2   41 1
     8    4    5 2
     9    4    6 am
    10    6    7 1
    11    6   46 1
    12    7    8 1
    13    7    9 1
    14    7   37 1
    15    9   10 2
    16    9   11 am
    17   11   16 1
    18   11   12 1
    19   12   13 1
    20   12   47 1
    21   12   48 1
    22   13   14 1
    23   13   49 1
    24   13   50 1
    25   14   15 1
    26   14   21 1
    27   14   16 1
    28   16   17 1
    29   16   18 1
    30   18   19 1
    31   18   20 1
    32   18   22 1
    33   20   21 1
    34   20   51 1
    35   20   52 1
    36   21   53 1
    37   21   54 1
    38   22   23 am
    39   22   55 1
    40   23   24 2
    41   23   25 1
    42   25   34 ar
    43   25   26 ar
    44   26   31 ar
    45   26   27 ar
    46   27   28 ar
    47   27   56 1
    48   28   29 ar
    49   28   57 1
    50   29   30 ar
    51   29   58 1
    52   30   31 ar
    53   30   59 1
    54   31   32 ar
    55   32   33 ar
    56   32   60 1
    57   33   34 ar
    58   33   61 1
    59   34   35 1
    60   35   36 1
    61   36   62 1
    62   36   63 1
    63   36   64 1
    64   37   38 1
    65   37   39 1
    66   37   40 1
    67   38   65 1
    68   38   66 1
    69   38   67 1
    70   39   68 1
    71   39   69 1
    72   39   70 1
    73   40   71 1
    74   40   72 1
    75   40   73 1
    76   41   42 1
    77   41   74 1
    78   41   78 1
    79   42   75 1
    80   42   76 1
    81   42   77 1
@<TRIPOS>MOLECULE
CHEMBL514911
   77    80     0     0     0
SMALL
USER_CHARGES

@<TRIPOS>ATOM
      1 C1          0.0987    1.7445   -1.8861 C.3       1 <0>        -0.1261
      2 C2          0.1890    0.2930   -1.4913 C.ar      1 <0>        -0.0340
      3 C3         -0.0178   -0.6796   -2.4234 C.ar      1 <0>        -0.1391
      4 C4          0.0591   -2.0253   -2.0879 C.ar      1 <0>        -0.0651
      5 C5          0.3503   -2.4146   -0.7888 C.ar      1 <0>        -0.1355
      6 C6          0.5699   -1.4219    0.1989 C.ar      1 <0>        -0.0081
      7 C7          0.4920   -0.0553   -0.1637 C.ar      1 <0>        -0.0596
      8 C8          0.7142    0.9297    0.8144 C.ar      1 <0>        -0.1111
      9 C9          1.0052    0.5575    2.0911 C.ar      1 <0>        -0.1125
     10 C10         1.0870   -0.7875    2.4444 C.ar      1 <0>        -0.1126
     11 C11         0.8669   -1.7679    1.5240 C.ar      1 <0>        -0.1181
     12 C12         0.4300   -3.8449   -0.4391 C.2       1 <0>         0.5714
     13 O1          0.7982   -4.1800    0.6704 O.2       1 <0>        -0.5298
     14 N1          0.0948   -4.7808   -1.3491 N.am      1 <0>        -0.7161
     15 C13         0.1740   -6.2018   -1.0017 C.3       1 <0>         0.1407
     16 H1          1.0098   -6.3736   -0.3235 H         1 <0>         0.0965
     17 C14        -1.1431   -6.6578   -0.3418 C.3       1 <0>        -0.1368
     18 C15        -1.3524   -8.0989   -0.8679 C.3       1 <0>        -0.1201
     19 C16        -0.8712   -8.0054   -2.3349 C.3       1 <0>        -0.1000
     20 H2         -1.6505   -7.6705   -3.0195 H         1 <0>         0.1089
     21 C17         0.3478   -7.0460   -2.2755 C.3       1 <0>         0.1316
     22 H3          0.3886   -6.4114   -3.1608 H         1 <0>         0.0911
     23 N2          1.5519   -7.8777   -2.1473 N.am      1 <0>        -0.6008
     24 C18         1.1432   -9.2885   -2.0270 C.3       1 <0>         0.0861
     25 C19        -0.2542   -9.3681   -2.7365 C.3       1 <0>        -0.1273
     26 C20         2.8214   -7.4251   -2.1413 C.2       1 <0>         0.5288
     27 O2          3.0401   -6.2324   -2.1629 O.2       1 <0>        -0.5169
     28 C21         3.9691   -8.4011   -2.1076 C.3       1 <0>         0.1386
     29 H4          3.6525   -9.3495   -2.5417 H         1 <0>         0.1162
     30 C22         4.4065   -8.6243   -0.6585 C.3       1 <0>        -0.0696
     31 C23         3.1987   -9.0495    0.1790 C.3       1 <0>        -0.1561
     32 C24         5.4719   -9.7213   -0.6105 C.3       1 <0>        -0.1312
     33 C25         4.9861   -7.3254   -0.0949 C.3       1 <0>        -0.1467
     34 N3          5.0917   -7.8616   -2.8789 N.am      1 <0>        -0.6831
     35 C26         6.0019   -8.6966   -3.4181 C.2       1 <0>         0.5053
     36 O3          5.8917   -9.8946   -3.2648 O.2       1 <0>        -0.5198
     37 C27         7.1567   -8.1416   -4.2115 C.3       1 <0>         0.0048
     38 H5          7.7484   -7.4806   -3.5782 H         1 <0>         0.1670
     39 C28         6.6211   -7.3552   -5.4097 C.3       1 <0>        -0.1826
     40 N4          7.9993   -9.2465   -4.6882 N.4       1 <0>        -0.4939
     41 C29         9.1877   -8.7022   -5.3584 C.3       1 <0>        -0.0504
     42 H6          1.0789    2.0946   -2.2100 H         1 <0>         0.0792
     43 H7         -0.6147    1.8553   -2.7027 H         1 <0>         0.0744
     44 H8         -0.2333    2.3336   -1.0312 H         1 <0>         0.0747
     45 H9         -0.2459   -0.3989   -3.4411 H         1 <0>         0.1302
     46 H10        -0.1099   -2.7758   -2.8459 H         1 <0>         0.1236
     47 H11         0.6547    1.9762    0.5542 H         1 <0>         0.1315
     48 H12         1.1755    1.3160    2.8409 H         1 <0>         0.1253
     49 H13         1.3198   -1.0569    3.4640 H         1 <0>         0.1247
     50 H14         0.9328   -2.8068    1.8118 H         1 <0>         0.1673
     51 H15        -0.1989   -4.5135   -2.2341 H         1 <0>         0.3981
     52 H16        -1.0456   -6.6584    0.7439 H         1 <0>         0.0777
     53 H17        -1.9674   -6.0152   -0.6514 H         1 <0>         0.0768
     54 H18        -0.7426   -8.8068   -0.3064 H         1 <0>         0.0745
     55 H19        -2.4056   -8.3762   -0.8244 H         1 <0>         0.0802
     56 H20         1.8613   -9.9359   -2.5302 H         1 <0>         0.0799
     57 H21         1.0487   -9.5681   -0.9777 H         1 <0>         0.0849
     58 H22        -0.8542  -10.1945   -2.3553 H         1 <0>         0.0957
     59 H23        -0.1384   -9.4394   -3.8179 H         1 <0>         0.0788
     60 H24         2.8302  -10.0115   -0.1770 H         1 <0>         0.0651
     61 H25         3.4945   -9.1380    1.2244 H         1 <0>         0.0725
     62 H26         2.4110   -8.3018    0.0863 H         1 <0>         0.0626
     63 H27         6.3324   -9.4184   -1.2072 H         1 <0>         0.0474
     64 H28         5.7835   -9.8803    0.4218 H         1 <0>         0.0618
     65 H29         5.0590  -10.6467   -1.0121 H         1 <0>         0.0650
     66 H30         4.2271   -6.5439   -0.1291 H         1 <0>         0.0686
     67 H31         5.2977   -7.4844    0.9374 H         1 <0>         0.0650
     68 H32         5.8466   -7.0225   -0.6916 H         1 <0>         0.0507
     69 H33         5.1799   -6.9035   -3.0015 H         1 <0>         0.4182
     70 H34         7.4563   -6.9537   -5.9835 H         1 <0>         0.1000
     71 H35         6.0295   -8.0162   -6.0430 H         1 <0>         0.0904
     72 H36         5.9959   -6.5353   -5.0560 H         1 <0>         0.1110
     73 H37         8.2854   -9.8137   -3.9042 H         1 <0>         0.4376
     74 H38         9.8129   -9.5220   -5.7121 H         1 <0>         0.1338
     75 H39         8.8786   -8.0895   -6.2053 H         1 <0>         0.1274
     76 H40         9.7535   -8.0910   -4.6552 H         1 <0>         0.1268
     77 H41         7.4756   -9.8123   -5.3392 H         1 <0>         0.4347
@<TRIPOS>BOND
     1    1    2 1
     2    1   42 1
     3    1   43 1
     4    1   44 1
     5    2    7 ar
     6    2    3 ar
     7    3    4 ar
     8    3   45 1
     9    4    5 ar
    10    4   46 1
    11    5    6 ar
    12    5   12 1
    13    6   11 ar
    14    6    7 ar
    15    7    8 ar
    16    8    9 ar
    17    8   47 1
    18    9   10 ar
    19    9   48 1
    20   10   11 ar
    21   10   49 1
    22   11   50 1
    23   12   13 2
    24   12   14 am
    25   14   15 1
    26   14   51 1
    27   15   16 1
    28   15   21 1
    29   15   17 1
    30   17   18 1
    31   17   52 1
    32   17   53 1
    33   18   19 1
    34   18   54 1
    35   18   55 1
    36   19   20 1
    37   19   25 1
    38   19   21 1
    39   21   22 1
    40   21   23 1
    41   23   24 1
    42   23   26 am
    43   24   25 1
    44   24   56 1
    45   24   57 1
    46   25   58 1
    47   25   59 1
    48   26   27 2
    49   26   28 1
    50   28   29 1
    51   28   30 1
    52   28   34 1
    53   30   31 1
    54   30   32 1
    55   30   33 1
    56   31   60 1
    57   31   61 1
    58   31   62 1
    59   32   63 1
    60   32   64 1
    61   32   65 1
    62   33   66 1
    63   33   67 1
    64   33   68 1
    65   34   35 am
    66   34   69 1
    67   35   36 2
    68   35   37 1
    69   37   38 1
    70   37   39 1
    71   37   40 1
    72   39   70 1
    73   39   71 1
    74   39   72 1
    75   40   41 1
    76   40   73 1
    77   40   77 1
    78   41   74 1
    79   41   75 1
    80   41   76 1
@<TRIPOS>MOLECULE
CHEMBL186911
   84    86     0     0     0
SMALL
USER_CHARGES

@<TRIPOS>ATOM
      1 C1         -0.5821   -0.9906    0.7179 C.3       1 <0>        -0.1829
      2 C2         -0.2389   -2.3192    1.3947 C.3       1 <0>         0.0082
      3 H1          0.2572   -2.9743    0.6785 H         1 <0>         0.1709
      4 C3          0.6787   -2.0656    2.5629 C.2       1 <0>         0.5048
      5 O1          0.3386   -2.3864    3.6819 O.2       1 <0>        -0.5300
      6 N1          1.8773   -1.4823    2.3640 N.am      1 <0>        -0.6779
      7 C4          2.7694   -1.2357    3.4997 C.3       1 <0>         0.1343
      8 H2          2.6674   -2.0438    4.2240 H         1 <0>         0.1136
      9 C5          2.3971    0.0925    4.1616 C.3       1 <0>        -0.0952
     10 C6          3.2659    0.3048    5.4030 C.3       1 <0>        -0.1609
     11 C7          2.6303    1.2376    3.1741 C.3       1 <0>        -0.1518
     12 C8          4.1948   -1.1730    3.0144 C.2       1 <0>         0.5357
     13 O2          4.4387   -0.7572    1.9015 O.2       1 <0>        -0.5067
     14 N2          5.1984   -1.5790    3.8172 N.am      1 <0>        -0.5896
     15 C9          5.0536   -2.0264    5.2144 C.3       1 <0>         0.0897
     16 C10         6.2839   -2.9323    5.4702 C.3       1 <0>        -0.1335
     17 C11         7.3870   -2.1936    4.6672 C.3       1 <0>        -0.1278
     18 C12         6.6180   -1.6550    3.4425 C.3       1 <0>         0.1225
     19 H3          6.9865   -0.6626    3.1829 H         1 <0>         0.1032
     20 C13         6.7902   -2.5907    2.2738 C.2       1 <0>         0.5246
     21 O3          5.8820   -3.3243    1.9454 O.2       1 <0>        -0.5362
     22 N3          7.9535   -2.6123    1.5936 N.am      1 <0>        -0.6963
     23 C14         8.0835   -3.4386    0.3908 C.3       1 <0>         0.1380
     24 H4          7.1547   -3.9836    0.2223 H         1 <0>         0.1195
     25 C15         8.3750   -2.5425   -0.8145 C.3       1 <0>        -0.0917
     26 C16         7.1734   -1.6792   -1.1009 C.ar      1 <0>        -0.0673
     27 C17         6.1425   -2.1667   -1.8823 C.ar      1 <0>        -0.1133
     28 C18         5.0403   -1.3748   -2.1449 C.ar      1 <0>        -0.1201
     29 C19         4.9688   -0.0956   -1.6259 C.ar      1 <0>        -0.1215
     30 C20         5.9993    0.3915   -0.8437 C.ar      1 <0>        -0.1007
     31 C21         7.0995   -0.4019   -0.5775 C.ar      1 <0>        -0.1033
     32 C22         9.2143   -4.4178    0.5739 C.2       1 <0>         0.5009
     33 O4          9.8491   -4.4248    1.6073 O.2       1 <0>        -0.5381
     34 N4          9.5202   -5.2858   -0.4107 N.am      1 <0>        -0.6857
     35 C23        10.6195   -6.2377   -0.2328 C.3       1 <0>         0.0856
     36 H5         10.6598   -6.5555    0.8091 H         1 <0>         0.0835
     37 C24        10.3891   -7.4562   -1.1290 C.3       1 <0>        -0.0792
     38 C25         9.1517   -8.1868   -0.6752 C.ar      1 <0>        -0.0702
     39 C26         9.2498   -9.1864    0.2750 C.ar      1 <0>        -0.0988
     40 C27         8.1170   -9.8580    0.6923 C.ar      1 <0>        -0.1397
     41 C28         6.8801   -9.5284    0.1575 C.ar      1 <0>         0.0857
     42 C29         6.7842   -8.5247   -0.7954 C.ar      1 <0>        -0.1423
     43 C30         7.9193   -7.8526   -1.2056 C.ar      1 <0>        -0.1021
     44 O5          5.7643  -10.1879    0.5661 O.3       1 <0>        -0.5016
     45 C31        11.9213   -5.5775   -0.6074 C.2       1 <0>         0.4924
     46 O6         12.9570   -5.9190   -0.0624 O.co2     1 <0>        -0.6881
     47 O7         11.9388   -4.7018   -1.4555 O.co2     1 <0>        -0.6872
     48 N5         -1.4724   -2.9592    1.8709 N.4       1 <0>        -0.6193
     49 H6          0.3331   -0.5157    0.3646 H         1 <0>         0.1129
     50 H7         -1.2459   -1.1741   -0.1270 H         1 <0>         0.0998
     51 H8         -1.0782   -0.3356    1.4341 H         1 <0>         0.0905
     52 H9          2.1493   -1.2257    1.4690 H         1 <0>         0.4199
     53 H10         1.3468    0.0717    4.4524 H         1 <0>         0.0850
     54 H11         2.9574    1.2188    5.9105 H         1 <0>         0.0697
     55 H12         3.1484   -0.5429    6.0781 H         1 <0>         0.0647
     56 H13         4.3109    0.3897    5.1050 H         1 <0>         0.0661
     57 H14         2.0114    1.0863    2.2897 H         1 <0>         0.0528
     58 H15         2.3651    2.1838    3.6457 H         1 <0>         0.0624
     59 H16         3.6806    1.2583    2.8833 H         1 <0>         0.0678
     60 H17         5.0654   -1.1709    5.8898 H         1 <0>         0.0856
     61 H18         4.1318   -2.5949    5.3371 H         1 <0>         0.0772
     62 H19         6.5299   -2.9666    6.5315 H         1 <0>         0.0941
     63 H20         6.1192   -3.9352    5.0763 H         1 <0>         0.0808
     64 H21         7.8083   -1.3763    5.2526 H         1 <0>         0.0943
     65 H22         8.1671   -2.8879    4.3550 H         1 <0>         0.0980
     66 H23         8.7047   -2.0808    1.9003 H         1 <0>         0.4071
     67 H24         9.2343   -1.9084   -0.5965 H         1 <0>         0.0871
     68 H25         8.5924   -3.1626   -1.6842 H         1 <0>         0.0956
     69 H26         6.1984   -3.1661   -2.2878 H         1 <0>         0.1172
     70 H27         4.2353   -1.7554   -2.7560 H         1 <0>         0.1126
     71 H28         4.1080    0.5233   -1.8317 H         1 <0>         0.1104
     72 H29         5.9435    1.3910   -0.4384 H         1 <0>         0.1128
     73 H30         7.9029   -0.0227    0.0366 H         1 <0>         0.1143
     74 H31         9.0124   -5.2803   -1.2372 H         1 <0>         0.3898
     75 H32        10.2601   -7.1291   -2.1607 H         1 <0>         0.0785
     76 H33        11.2490   -8.1228   -1.0639 H         1 <0>         0.0908
     77 H34        10.2130   -9.4426    0.6911 H         1 <0>         0.1296
     78 H35         8.1943  -10.6392    1.4341 H         1 <0>         0.1256
     79 H36         5.8224   -8.2663   -1.2133 H         1 <0>         0.1219
     80 H37         7.8446   -7.0682   -1.9442 H         1 <0>         0.1223
     81 H38         5.3233   -9.7821    1.3250 H         1 <0>         0.3833
     82 H39        -2.0868   -3.1290    1.0887 H         1 <0>         0.4425
     83 H40        -1.2461   -3.8354    2.3172 H         1 <0>         0.4432
     84 H41        -1.9316   -2.3528    2.5339 H         1 <0>         0.4392
@<TRIPOS>BOND
     1    1    2 1
     2    1   49 1
     3    1   50 1
     4    1   51 1
     5    2    3 1
     6    2    4 1
     7    2   48 1
     8    4    5 2
     9    4    6 am
    10    6    7 1
    11    6   52 1
    12    7    8 1
    13    7    9 1
    14    7   12 1
    15    9   10 1
    16    9   11 1
    17    9   53 1
    18   10   54 1
    19   10   55 1
    20   10   56 1
    21   11   57 1
    22   11   58 1
    23   11   59 1
    24   12   13 2
    25   12   14 am
    26   14   18 1
    27   14   15 1
    28   15   16 1
    29   15   60 1
    30   15   61 1
    31   16   17 1
    32   16   62 1
    33   16   63 1
    34   17   18 1
    35   17   64 1
    36   17   65 1
    37   18   19 1
    38   18   20 1
    39   20   21 2
    40   20   22 am
    41   22   23 1
    42   22   66 1
    43   23   24 1
    44   23   25 1
    45   23   32 1
    46   25   26 1
    47   25   67 1
    48   25   68 1
    49   26   31 ar
    50   26   27 ar
    51   27   28 ar
    52   27   69 1
    53   28   29 ar
    54   28   70 1
    55   29   30 ar
    56   29   71 1
    57   30   31 ar
    58   30   72 1
    59   31   73 1
    60   32   33 2
    61   32   34 am
    62   34   35 1
    63   34   74 1
    64   35   36 1
    65   35   37 1
    66   35   45 1
    67   37   38 1
    68   37   75 1
    69   37   76 1
    70   38   43 ar
    71   38   39 ar
    72   39   40 ar
    73   39   77 1
    74   40   41 ar
    75   40   78 1
    76   41   42 ar
    77   41   44 1
    78   42   43 ar
    79   42   79 1
    80   43   80 1
    81   44   81 1
    82   45   46 2
    83   45   47 1
    84   48   82 1
    85   48   83 1
    86   48   84 1
@<TRIPOS>MOLECULE
CHEMBL515848
   76    80     0     0     0
SMALL
USER_CHARGES

@<TRIPOS>ATOM
      1 C1          0.4672    1.4340   -0.1964 C.3       1 <0>        -0.1866
      2 C2          0.6224   -0.0877   -0.2303 C.3       1 <0>         0.0058
      3 H1          1.2326   -0.3717   -1.0877 H         1 <0>         0.1626
      4 C3          1.2906   -0.5529    1.0379 C.2       1 <0>         0.5196
      5 O1          0.7195   -1.3286    1.7748 O.2       1 <0>        -0.5228
      6 N1          2.5227   -0.1068    1.3531 N.am      1 <0>        -0.6752
      7 C4          3.1722   -0.5590    2.5860 C.3       1 <0>         0.1602
      8 H2          2.8929   -1.5960    2.7726 H         1 <0>         0.1181
      9 C5          4.6698   -0.4794    2.4084 C.3       1 <0>        -0.0855
     10 C6          5.4262   -1.1465    3.5169 C.ar      1 <0>        -0.0686
     11 C7          6.5715   -1.8199    3.0585 C.ar      1 <0>        -0.1198
     12 C8          7.3714   -2.5476    3.9033 C.ar      1 <0>        -0.1099
     13 C9          7.0322   -2.6281    5.2420 C.ar      1 <0>        -0.1084
     14 C10         5.9266   -1.9534    5.6927 C.ar      1 <0>        -0.1203
     15 C11         5.1268   -1.1735    4.8360 C.ar      1 <0>        -0.0799
     16 C12         4.0795   -0.4114    5.5998 C.3       1 <0>         0.1945
     17 H3          3.4206   -1.1665    6.0285 H         1 <0>         0.0676
     18 C13         4.8283    0.1961    6.7914 C.3       1 <0>        -0.1293
     19 C14         3.9730    1.2010    7.5529 C.3       1 <0>        -0.1225
     20 C15         3.6255    2.3215    6.5587 C.3       1 <0>        -0.1284
     21 C16         2.6673    1.7257    5.5371 C.3       1 <0>         0.1424
     22 H4          1.7278    1.4815    6.0328 H         1 <0>         0.0910
     23 N2          3.2263    0.5150    4.9150 N.am      1 <0>        -0.5756
     24 C17         2.7014    0.2711    3.7057 C.2       1 <0>         0.5140
     25 O2          1.6566    0.8487    3.4918 O.2       1 <0>        -0.5249
     26 C18         2.4019    2.7466    4.4608 C.2       1 <0>         0.5462
     27 O3          2.9610    2.6564    3.3883 O.2       1 <0>        -0.5331
     28 N3          1.5432    3.7598    4.6900 N.am      1 <0>        -0.7196
     29 C19         1.2851    4.7522    3.6437 C.3       1 <0>         0.2352
     30 C20         0.2094    4.2407    2.7205 C.ar      1 <0>        -0.0696
     31 C21        -0.8835    3.5702    3.2372 C.ar      1 <0>        -0.0864
     32 C22        -1.8703    3.1011    2.3905 C.ar      1 <0>        -0.1200
     33 C23        -1.7644    3.3028    1.0270 C.ar      1 <0>        -0.1363
     34 C24        -0.6720    3.9741    0.5104 C.ar      1 <0>        -0.1236
     35 C25         0.3126    4.4470    1.3576 C.ar      1 <0>        -0.1034
     36 C26         0.8324    6.0429    4.2762 C.ar      1 <0>        -0.0967
     37 C27        -0.0282    6.0181    5.3577 C.ar      1 <0>        -0.1123
     38 C28        -0.4435    7.2020    5.9379 C.ar      1 <0>        -0.1130
     39 C29         0.0022    8.4108    5.4369 C.ar      1 <0>        -0.1114
     40 C30         0.8635    8.4357    4.3559 C.ar      1 <0>        -0.1123
     41 C31         1.2822    7.2516    3.7784 C.ar      1 <0>        -0.1038
     42 N4         -0.7022   -0.7126   -0.3435 N.4       1 <0>        -0.4943
     43 C32        -1.3038   -0.3545   -1.6349 C.3       1 <0>        -0.0501
     44 H5          1.4501    1.8977   -0.1124 H         1 <0>         0.1089
     45 H6         -0.0160    1.7705   -1.1137 H         1 <0>         0.0938
     46 H7         -0.1430    1.7180    0.6610 H         1 <0>         0.1033
     47 H8          2.9794    0.5136    0.7637 H         1 <0>         0.4129
     48 H9          4.9372   -0.9553    1.4650 H         1 <0>         0.0946
     49 H10         4.9628    0.5696    2.3652 H         1 <0>         0.0933
     50 H11         6.8292   -1.7632    2.0112 H         1 <0>         0.1232
     51 H12         8.2513   -3.0498    3.5291 H         1 <0>         0.1297
     52 H13         7.6306   -3.2144    5.9236 H         1 <0>         0.1309
     53 H14         5.6610   -2.0229    6.7372 H         1 <0>         0.1298
     54 H15         5.1229   -0.6045    7.4700 H         1 <0>         0.0894
     55 H16         5.7251    0.6978    6.4278 H         1 <0>         0.0757
     56 H17         3.0612    0.7215    7.9088 H         1 <0>         0.0739
     57 H18         4.5347    1.6084    8.3935 H         1 <0>         0.0843
     58 H19         3.1446    3.1478    7.0823 H         1 <0>         0.0890
     59 H20         4.5300    2.6711    6.0609 H         1 <0>         0.0810
     60 H21         1.0960    3.8319    5.5477 H         1 <0>         0.3995
     61 H22         2.1987    4.9269    3.0754 H         1 <0>         0.1027
     62 H23        -0.9662    3.4126    4.3025 H         1 <0>         0.1151
     63 H24        -2.7237    2.5766    2.7941 H         1 <0>         0.1197
     64 H25        -2.5351    2.9357    0.3654 H         1 <0>         0.1174
     65 H26        -0.5892    4.1314   -0.5549 H         1 <0>         0.1212
     66 H27         1.1643    4.9747    0.9543 H         1 <0>         0.1210
     67 H28        -0.3764    5.0736    5.7491 H         1 <0>         0.1170
     68 H29        -1.1164    7.1826    6.7824 H         1 <0>         0.1263
     69 H30        -0.3228    9.3359    5.8897 H         1 <0>         0.1266
     70 H31         1.2115    9.3801    3.9643 H         1 <0>         0.1274
     71 H32         1.9581    7.2708    2.9363 H         1 <0>         0.1233
     72 H33        -0.6073   -1.7153   -0.2832 H         1 <0>         0.4355
     73 H34        -1.4063    0.7287   -1.7001 H         1 <0>         0.1268
     74 H35        -0.6648   -0.7083   -2.4440 H         1 <0>         0.1263
     75 H36        -2.2866   -0.8182   -1.7190 H         1 <0>         0.1322
     76 H37        -1.2937   -0.3851    0.4054 H         1 <0>         0.4346
@<TRIPOS>BOND
     1    1    2 1
     2    1   44 1
     3    1   45 1
     4    1   46 1
     5    2    3 1
     6    2    4 1
     7    2   42 1
     8    4    5 2
     9    4    6 am
    10    6    7 1
    11    6   47 1
    12    7    8 1
    13    7   24 1
    14    7    9 1
    15    9   10 1
    16    9   48 1
    17    9   49 1
    18   10   15 ar
    19   10   11 ar
    20   11   12 ar
    21   11   50 1
    22   12   13 ar
    23   12   51 1
    24   13   14 ar
    25   13   52 1
    26   14   15 ar
    27   14   53 1
    28   15   16 1
    29   16   17 1
    30   16   23 1
    31   16   18 1
    32   18   19 1
    33   18   54 1
    34   18   55 1
    35   19   20 1
    36   19   56 1
    37   19   57 1
    38   20   21 1
    39   20   58 1
    40   20   59 1
    41   21   22 1
    42   21   23 1
    43   21   26 1
    44   23   24 am
    45   24   25 2
    46   26   27 2
    47   26   28 am
    48   28   29 1
    49   28   60 1
    50   29   30 1
    51   29   36 1
    52   29   61 1
    53   30   35 ar
    54   30   31 ar
    55   31   32 ar
    56   31   62 1
    57   32   33 ar
    58   32   63 1
    59   33   34 ar
    60   33   64 1
    61   34   35 ar
    62   34   65 1
    63   35   66 1
    64   36   41 ar
    65   36   37 ar
    66   37   38 ar
    67   37   67 1
    68   38   39 ar
    69   38   68 1
    70   39   40 ar
    71   39   69 1
    72   40   41 ar
    73   40   70 1
    74   41   71 1
    75   42   43 1
    76   42   72 1
    77   42   76 1
    78   43   73 1
    79   43   74 1
    80   43   75 1
@<TRIPOS>MOLECULE
CHEMBL575370
   91    95     0     0     0
SMALL
USER_CHARGES

@<TRIPOS>ATOM
      1 C1         -0.0187    1.5258    0.0104 C.3       1 <0>        -0.1713
      2 C2          0.0021   -0.0041    0.0020 C.3       1 <0>        -0.1433
      3 C3          0.7182   -0.4975   -1.2568 C.3       1 <0>         0.0120
      4 H1          1.7103   -0.0491   -1.3098 H         1 <0>         0.1635
      5 C4          0.8473   -1.9981   -1.2057 C.2       1 <0>         0.5031
      6 O1          0.0734   -2.6948   -1.8275 O.2       1 <0>        -0.4903
      7 N1          1.8227   -2.5659   -0.4690 N.am      1 <0>        -0.6951
      8 C5          1.9479   -4.0218   -0.4195 C.3       1 <0>         0.1523
      9 H2          1.6698   -4.4194   -1.4083 H         1 <0>         0.1274
     10 C6          3.3875   -4.4329   -0.1289 C.3       1 <0>        -0.0966
     11 H3          3.4014   -5.4428    0.2890 H         1 <0>         0.1120
     12 C7          4.0513   -3.4639    0.8436 C.3       1 <0>        -0.1300
     13 C8          3.2649   -3.3608    2.1453 C.3       1 <0>        -0.1421
     14 C9          2.6383   -4.7114    2.4861 C.3       1 <0>         0.1298
     15 H4          3.2846   -5.5181    2.1349 H         1 <0>         0.0862
     16 C10         2.4620   -4.8188    4.0106 C.3       1 <0>        -0.1286
     17 C11         1.1277   -5.5699    4.1817 C.3       1 <0>        -0.1287
     18 C12         0.3420   -5.2440    2.9009 C.3       1 <0>         0.1172
     19 H5         -0.2003   -6.1291    2.5612 H         1 <0>         0.1108
     20 N2          1.3122   -4.8256    1.8736 N.am      1 <0>        -0.5810
     21 C13         0.9940   -4.5869    0.5900 C.2       1 <0>         0.5178
     22 O2         -0.1354   -4.8528    0.2235 O.2       1 <0>        -0.5022
     23 C14        -0.6347   -4.1264    3.1785 C.2       1 <0>         0.5197
     24 O3         -0.5422   -3.0770    2.5776 O.2       1 <0>        -0.5319
     25 N3         -1.6093   -4.2952    4.0940 N.am      1 <0>        -0.7176
     26 C15        -2.5570   -3.2109    4.3633 C.3       1 <0>         0.2385
     27 C16        -3.6840   -3.2692    3.3647 C.ar      1 <0>        -0.0915
     28 C17        -4.2126   -4.4901    2.9894 C.ar      1 <0>        -0.1000
     29 C18        -5.2464   -4.5436    2.0733 C.ar      1 <0>        -0.1158
     30 C19        -5.7521   -3.3761    1.5329 C.ar      1 <0>        -0.1148
     31 C20        -5.2242   -2.1550    1.9088 C.ar      1 <0>        -0.1198
     32 C21        -4.1932   -2.1013    2.8281 C.ar      1 <0>        -0.1051
     33 C22        -3.1117   -3.3630    5.7562 C.ar      1 <0>        -0.0984
     34 C23        -3.4244   -4.6187    6.2424 C.ar      1 <0>        -0.1131
     35 C24        -3.9332   -4.7582    7.5201 C.ar      1 <0>        -0.1113
     36 C25        -4.1289   -3.6421    8.3118 C.ar      1 <0>        -0.1098
     37 C26        -3.8153   -2.3865    7.8260 C.ar      1 <0>        -0.1115
     38 C27        -3.3024   -2.2473    6.5499 C.ar      1 <0>        -0.1044
     39 C28         4.1804   -4.4439   -1.4441 C.3       1 <0>        -0.1484
     40 C29         5.5918   -4.9743   -1.1843 C.3       1 <0>        -0.0154
     41 N4          6.3502   -4.9849   -2.4423 N.4       1 <0>        -0.5089
     42 C30         7.7054   -5.4942   -2.1929 C.3       1 <0>         0.0478
     43 C31         8.4834   -5.5050   -3.4835 C.ar      1 <0>        -0.1734
     44 C32         8.4572   -6.6223   -4.2970 C.ar      1 <0>        -0.0926
     45 C33         9.1708   -6.6322   -5.4808 C.ar      1 <0>        -0.1129
     46 C34         9.9104   -5.5247   -5.8513 C.ar      1 <0>        -0.0788
     47 C35         9.9359   -4.4070   -5.0383 C.ar      1 <0>        -0.1141
     48 C36         9.2188   -4.3955   -3.8565 C.ar      1 <0>        -0.0938
     49 N5         -0.0570   -0.1128   -2.4438 N.4       1 <0>        -0.6226
     50 H6          1.0039    1.9031    0.0027 H         1 <0>         0.0749
     51 H7         -0.5459    1.8868   -0.8726 H         1 <0>         0.0567
     52 H8         -0.5289    1.8773    0.9072 H         1 <0>         0.0916
     53 H9          0.5293   -0.3651    0.8851 H         1 <0>         0.1173
     54 H10        -1.0205   -0.3814    0.0098 H         1 <0>         0.1009
     55 H11         2.4416   -2.0086    0.0283 H         1 <0>         0.4112
     56 H12         5.0618   -3.8273    1.0713 H         1 <0>         0.0832
     57 H13         4.1448   -2.4779    0.3880 H         1 <0>         0.0740
     58 H14         3.9408   -3.0664    2.9532 H         1 <0>         0.0933
     59 H15         2.4829   -2.6087    2.0531 H         1 <0>         0.0780
     60 H16         3.2775   -5.3915    4.4502 H         1 <0>         0.0961
     61 H17         2.4033   -3.8293    4.4604 H         1 <0>         0.0832
     62 H18         1.3017   -6.6412    4.2619 H         1 <0>         0.0958
     63 H19         0.5973   -5.2013    5.0597 H         1 <0>         0.0942
     64 H20        -1.6833   -5.1345    4.5746 H         1 <0>         0.4026
     65 H21        -2.0456   -2.2520    4.2786 H         1 <0>         0.1010
     66 H22        -3.8175   -5.4023    3.4116 H         1 <0>         0.1148
     67 H23        -5.6588   -5.4975    1.7796 H         1 <0>         0.1238
     68 H24        -6.5593   -3.4179    0.8166 H         1 <0>         0.1236
     69 H25        -5.6190   -1.2429    1.4863 H         1 <0>         0.1221
     70 H26        -3.7832   -1.1472    3.1246 H         1 <0>         0.1178
     71 H27        -3.2715   -5.4907    5.6238 H         1 <0>         0.1170
     72 H28        -4.1782   -5.7392    7.8996 H         1 <0>         0.1277
     73 H29        -4.5271   -3.7510    9.3098 H         1 <0>         0.1281
     74 H30        -3.9685   -1.5144    8.4445 H         1 <0>         0.1281
     75 H31        -3.0540   -1.2667    6.1717 H         1 <0>         0.1220
     76 H32         3.6776   -5.0873   -2.1661 H         1 <0>         0.0970
     77 H33         4.2405   -3.4304   -1.8407 H         1 <0>         0.0906
     78 H34         6.0946   -4.3309   -0.4623 H         1 <0>         0.1371
     79 H35         5.5318   -5.9879   -0.7878 H         1 <0>         0.1378
     80 H36         5.8848   -5.5805   -3.1107 H         1 <0>         0.4287
     81 H37         8.2082   -4.8507   -1.4709 H         1 <0>         0.1386
     82 H38         7.6453   -6.5077   -1.7963 H         1 <0>         0.1394
     83 H39         7.8794   -7.4876   -4.0075 H         1 <0>         0.1316
     84 H40         9.1509   -7.5054   -6.1161 H         1 <0>         0.1380
     85 H41        10.4686   -5.5327   -6.7759 H         1 <0>         0.1381
     86 H42        10.5140   -3.5418   -5.3276 H         1 <0>         0.1373
     87 H43         9.2357   -3.5209   -3.2231 H         1 <0>         0.1303
     88 H44        -0.9754   -0.5279   -2.3947 H         1 <0>         0.4453
     89 H45        -0.1435    0.8919   -2.4780 H         1 <0>         0.4436
     90 H46         6.4058   -4.0467   -2.8094 H         1 <0>         0.4261
     91 H47         0.4152   -0.4382   -3.2739 H         1 <0>         0.4386
@<TRIPOS>BOND
     1    1    2 1
     2    1   50 1
     3    1   51 1
     4    1   52 1
     5    2    3 1
     6    2   53 1
     7    2   54 1
     8    3    4 1
     9    3    5 1
    10    3   49 1
    11    5    6 2
    12    5    7 am
    13    7    8 1
    14    7   55 1
    15    8    9 1
    16    8   21 1
    17    8   10 1
    18   10   11 1
    19   10   12 1
    20   10   39 1
    21   12   13 1
    22   12   56 1
    23   12   57 1
    24   13   14 1
    25   13   58 1
    26   13   59 1
    27   14   15 1
    28   14   20 1
    29   14   16 1
    30   16   17 1
    31   16   60 1
    32   16   61 1
    33   17   18 1
    34   17   62 1
    35   17   63 1
    36   18   19 1
    37   18   20 1
    38   18   23 1
    39   20   21 am
    40   21   22 2
    41   23   24 2
    42   23   25 am
    43   25   26 1
    44   25   64 1
    45   26   27 1
    46   26   33 1
    47   26   65 1
    48   27   32 ar
    49   27   28 ar
    50   28   29 ar
    51   28   66 1
    52   29   30 ar
    53   29   67 1
    54   30   31 ar
    55   30   68 1
    56   31   32 ar
    57   31   69 1
    58   32   70 1
    59   33   38 ar
    60   33   34 ar
    61   34   35 ar
    62   34   71 1
    63   35   36 ar
    64   35   72 1
    65   36   37 ar
    66   36   73 1
    67   37   38 ar
    68   37   74 1
    69   38   75 1
    70   39   40 1
    71   39   76 1
    72   39   77 1
    73   40   41 1
    74   40   78 1
    75   40   79 1
    76   41   42 1
    77   41   80 1
    78   41   90 1
    79   42   43 1
    80   42   81 1
    81   42   82 1
    82   43   48 ar
    83   43   44 ar
    84   44   45 ar
    85   44   83 1
    86   45   46 ar
    87   45   84 1
    88   46   47 ar
    89   46   85 1
    90   47   48 ar
    91   47   86 1
    92   48   87 1
    93   49   88 1
    94   49   89 1
    95   49   91 1
@<TRIPOS>MOLECULE
CHEMBL221137
   46    46     0     0     0
SMALL
USER_CHARGES

@<TRIPOS>ATOM
      1 C1         -0.0187    1.5258    0.0104 C.3       1 <0>        -0.1535
      2 C2          0.0021   -0.0041    0.0020 C.3       1 <0>        -0.1263
      3 C3          0.7182   -0.4975   -1.2568 C.3       1 <0>        -0.1209
      4 C4          0.7390   -2.0273   -1.2652 C.3       1 <0>        -0.1213
      5 C5          1.4551   -2.5207   -2.5240 C.3       1 <0>        -0.1200
      6 C6          1.4758   -4.0506   -2.5324 C.3       1 <0>        -0.1208
      7 C7          2.1920   -4.5440   -3.7912 C.3       1 <0>        -0.1192
      8 C8          2.2127   -6.0738   -3.7996 C.3       1 <0>        -0.1204
      9 C9          2.9289   -6.5673   -5.0584 C.3       1 <0>        -0.1164
     10 C10         2.9496   -8.0971   -5.0668 C.3       1 <0>        -0.1118
     11 C11         3.6658   -8.5905   -6.3257 C.3       1 <0>        -0.0551
     12 C12         3.6862  -10.0973   -6.3339 C.2       1 <0>        -0.2319
     13 C13         2.7347  -10.7815   -7.0037 C.2       1 <0>         0.1093
     14 C14         2.7551  -12.2675   -7.0123 C.2       1 <0>         0.3874
     15 O1          1.8989  -12.8833   -7.6155 O.2       1 <0>        -0.5265
     16 C15         3.8086  -12.9901   -6.2934 C.2       1 <0>        -0.4724
     17 C16         4.7598  -12.3060   -5.6233 C.2       1 <0>         0.2555
     18 C17         4.7428  -10.8200   -5.6197 C.2       1 <0>         0.3951
     19 O2          5.6019  -10.2040   -5.0207 O.2       1 <0>        -0.4361
     20 O3          5.7314  -12.9729   -4.9592 O.3       1 <0>        -0.6381
     21 O4          1.7623  -10.1146   -7.6667 O.3       1 <0>        -0.4602
     22 H1          1.0039    1.9031    0.0027 H         1 <0>         0.0530
     23 H2         -0.5459    1.8868   -0.8726 H         1 <0>         0.0528
     24 H3         -0.5289    1.8773    0.9072 H         1 <0>         0.0522
     25 H4          0.5293   -0.3651    0.8851 H         1 <0>         0.0602
     26 H5         -1.0205   -0.3814    0.0098 H         1 <0>         0.0600
     27 H6          0.1910   -0.1364   -2.1398 H         1 <0>         0.0601
     28 H7          1.7408   -0.1202   -1.2645 H         1 <0>         0.0603
     29 H8          1.2661   -2.3884   -0.3821 H         1 <0>         0.0605
     30 H9         -0.2836   -2.4046   -1.2575 H         1 <0>         0.0602
     31 H10         0.9279   -2.1597   -3.4071 H         1 <0>         0.0597
     32 H11         2.4777   -2.1435   -2.5317 H         1 <0>         0.0601
     33 H12         2.0030   -4.4117   -1.6494 H         1 <0>         0.0605
     34 H13         0.4533   -4.4279   -2.5247 H         1 <0>         0.0599
     35 H14         1.6648   -4.1829   -4.6743 H         1 <0>         0.0592
     36 H15         3.2146   -4.1667   -3.7990 H         1 <0>         0.0600
     37 H16         2.7399   -6.4349   -2.9166 H         1 <0>         0.0610
     38 H17         1.1901   -6.4511   -3.7919 H         1 <0>         0.0597
     39 H18         2.4017   -6.2062   -5.9415 H         1 <0>         0.0591
     40 H19         3.9515   -6.1900   -5.0662 H         1 <0>         0.0604
     41 H20         3.4768   -8.4582   -4.1838 H         1 <0>         0.0624
     42 H21         1.9270   -8.4744   -5.0591 H         1 <0>         0.0596
     43 H22         3.1386   -8.2294   -7.2087 H         1 <0>         0.0715
     44 H23         4.6884   -8.2132   -6.3334 H         1 <0>         0.0697
     45 H24         3.8235  -14.0700   -6.2997 H         1 <0>         0.1201
     46 H25         1.1272  -10.6892   -8.1156 H         1 <0>         0.4016
@<TRIPOS>BOND
     1    1    2 1
     2    1   22 1
     3    1   23 1
     4    1   24 1
     5    2    3 1
     6    2   25 1
     7    2   26 1
     8    3    4 1
     9    3   27 1
    10    3   28 1
    11    4    5 1
    12    4   29 1
    13    4   30 1
    14    5    6 1
    15    5   31 1
    16    5   32 1
    17    6    7 1
    18    6   33 1
    19    6   34 1
    20    7    8 1
    21    7   35 1
    22    7   36 1
    23    8    9 1
    24    8   37 1
    25    8   38 1
    26    9   10 1
    27    9   39 1
    28    9   40 1
    29   10   11 1
    30   10   41 1
    31   10   42 1
    32   11   12 1
    33   11   43 1
    34   11   44 1
    35   12   18 1
    36   12   13 2
    37   13   14 1
    38   13   21 1
    39   14   15 2
    40   14   16 1
    41   16   17 2
    42   16   45 1
    43   17   18 1
    44   17   20 1
    45   18   19 2
    46   21   46 1
@<TRIPOS>MOLECULE
CHEMBL221137__1
   46    46     0     0     0
SMALL
USER_CHARGES

@<TRIPOS>ATOM
      1 C1         -0.0187    1.5258    0.0104 C.3       1 <0>        -0.1534
      2 C2          0.0021   -0.0041    0.0020 C.3       1 <0>        -0.1262
      3 C3          0.7182   -0.4975   -1.2568 C.3       1 <0>        -0.1210
      4 C4          0.7390   -2.0273   -1.2652 C.3       1 <0>        -0.1210
      5 C5          1.4551   -2.5207   -2.5240 C.3       1 <0>        -0.1201
      6 C6          1.4758   -4.0506   -2.5324 C.3       1 <0>        -0.1203
      7 C7          2.1920   -4.5440   -3.7912 C.3       1 <0>        -0.1193
      8 C8          2.2127   -6.0738   -3.7996 C.3       1 <0>        -0.1189
      9 C9          2.9289   -6.5673   -5.0584 C.3       1 <0>        -0.1175
     10 C10         2.9496   -8.0971   -5.0668 C.3       1 <0>        -0.1081
     11 C11         3.6658   -8.5905   -6.3257 C.3       1 <0>        -0.0058
     12 C12         3.6862  -10.0973   -6.3339 C.2       1 <0>        -0.4374
     13 C13         2.7347  -10.7815   -7.0037 C.2       1 <0>         0.2553
     14 C14         2.7551  -12.2675   -7.0123 C.2       1 <0>         0.3898
     15 O1          1.8989  -12.8833   -7.6155 O.2       1 <0>        -0.4491
     16 C15         3.8086  -12.9901   -6.2934 C.2       1 <0>        -0.3323
     17 C16         4.7598  -12.3060   -5.6233 C.2       1 <0>         0.1326
     18 C17         4.7428  -10.8200   -5.6197 C.2       1 <0>         0.4245
     19 O2          5.6019  -10.2040   -5.0207 O.2       1 <0>        -0.4958
     20 O3          5.7314  -12.9729   -4.9592 O.3       1 <0>        -0.4554
     21 O4          1.7623  -10.1146   -7.6667 O.3       1 <0>        -0.6308
     22 H1          1.0039    1.9031    0.0027 H         1 <0>         0.0528
     23 H2         -0.5459    1.8868   -0.8726 H         1 <0>         0.0529
     24 H3         -0.5289    1.8773    0.9072 H         1 <0>         0.0518
     25 H4          0.5293   -0.3651    0.8851 H         1 <0>         0.0599
     26 H5         -1.0205   -0.3814    0.0098 H         1 <0>         0.0600
     27 H6          0.1910   -0.1364   -2.1398 H         1 <0>         0.0602
     28 H7          1.7408   -0.1202   -1.2645 H         1 <0>         0.0601
     29 H8          1.2661   -2.3884   -0.3821 H         1 <0>         0.0599
     30 H9         -0.2836   -2.4046   -1.2575 H         1 <0>         0.0601
     31 H10         0.9279   -2.1597   -3.4071 H         1 <0>         0.0599
     32 H11         2.4777   -2.1435   -2.5317 H         1 <0>         0.0596
     33 H12         2.0030   -4.4117   -1.6494 H         1 <0>         0.0592
     34 H13         0.4533   -4.4279   -2.5247 H         1 <0>         0.0596
     35 H14         1.6648   -4.1829   -4.6743 H         1 <0>         0.0591
     36 H15         3.2146   -4.1667   -3.7990 H         1 <0>         0.0585
     37 H16         2.7399   -6.4349   -2.9166 H         1 <0>         0.0574
     38 H17         1.1901   -6.4511   -3.7919 H         1 <0>         0.0584
     39 H18         2.4017   -6.2062   -5.9415 H         1 <0>         0.0567
     40 H19         3.9515   -6.1900   -5.0662 H         1 <0>         0.0548
     41 H20         3.4768   -8.4582   -4.1838 H         1 <0>         0.0500
     42 H21         1.9270   -8.4744   -5.0591 H         1 <0>         0.0542
     43 H22         3.1386   -8.2294   -7.2087 H         1 <0>         0.0598
     44 H23         4.6884   -8.2132   -6.3334 H         1 <0>         0.0413
     45 H24         3.8235  -14.0700   -6.2997 H         1 <0>         0.1323
     46 H25         5.6614  -13.9353   -5.0221 H         1 <0>         0.3918
@<TRIPOS>BOND
     1    1    2 1
     2    1   22 1
     3    1   23 1
     4    1   24 1
     5    2    3 1
     6    2   25 1
     7    2   26 1
     8    3    4 1
     9    3   27 1
    10    3   28 1
    11    4    5 1
    12    4   29 1
    13    4   30 1
    14    5    6 1
    15    5   31 1
    16    5   32 1
    17    6    7 1
    18    6   33 1
    19    6   34 1
    20    7    8 1
    21    7   35 1
    22    7   36 1
    23    8    9 1
    24    8   37 1
    25    8   38 1
    26    9   10 1
    27    9   39 1
    28    9   40 1
    29   10   11 1
    30   10   41 1
    31   10   42 1
    32   11   12 1
    33   11   43 1
    34   11   44 1
    35   12   18 1
    36   12   13 2
    37   13   14 1
    38   13   21 1
    39   14   15 2
    40   14   16 1
    41   16   17 2
    42   16   45 1
    43   17   18 1
    44   17   20 1
    45   18   19 2
    46   20   46 1
@<TRIPOS>MOLECULE
CHEMBL186819
   83    84     0     0     0
SMALL
USER_CHARGES

@<TRIPOS>ATOM
      1 C1         -1.6483    1.9361   -0.3461 C.3       1 <0>        -0.1430
      2 C2         -1.4422    0.4343   -0.1390 C.3       1 <0>        -0.1265
      3 C3         -0.2925   -0.0497   -1.0249 C.3       1 <0>        -0.1050
      4 C4         -0.0864   -1.5516   -0.8178 C.3       1 <0>        -0.1255
      5 C5          1.0633   -2.0356   -1.7037 C.3       1 <0>         0.1355
      6 H1          1.9544   -1.4423   -1.4988 H         1 <0>         0.1062
      7 C6          1.3472   -3.4862   -1.4103 C.2       1 <0>         0.5142
      8 O1          1.2478   -4.3138   -2.2913 O.2       1 <0>        -0.5457
      9 N1          1.7115   -3.8639   -0.1689 N.am      1 <0>        -0.6832
     10 C7          1.9875   -5.2741    0.1163 C.3       1 <0>         0.0844
     11 H2          2.4511   -5.7370   -0.7548 H         1 <0>         0.0847
     12 C8          2.9351   -5.3764    1.3132 C.3       1 <0>        -0.0770
     13 C9          4.2684   -4.7745    0.9511 C.ar      1 <0>        -0.0721
     14 C10         5.2536   -5.5662    0.3905 C.ar      1 <0>        -0.0992
     15 C11         6.4769   -5.0170    0.0581 C.ar      1 <0>        -0.1405
     16 C12         6.7161   -3.6698    0.2867 C.ar      1 <0>         0.0868
     17 C13         5.7258   -2.8774    0.8489 C.ar      1 <0>        -0.1425
     18 C14         4.5024   -3.4303    1.1747 C.ar      1 <0>        -0.1030
     19 O2          7.9188   -3.1272   -0.0390 O.3       1 <0>        -0.5015
     20 C15         0.6970   -5.9840    0.4353 C.2       1 <0>         0.4911
     21 O3         -0.3557   -5.3690    0.4253 O.co2     1 <0>        -0.6821
     22 O4          0.7056   -7.1734    0.7034 O.co2     1 <0>        -0.6923
     23 N2          0.6904   -1.8862   -3.1126 N.am      1 <0>        -0.7002
     24 C16         0.8767   -0.7067   -3.7375 C.2       1 <0>         0.5107
     25 O5          1.3529    0.2310   -3.1336 O.2       1 <0>        -0.5244
     26 C17         0.4931   -0.5530   -5.1868 C.3       1 <0>         0.1202
     27 H3         -0.5701   -0.7579   -5.3124 H         1 <0>         0.1057
     28 C18         1.3209   -1.5242   -6.0546 C.3       1 <0>        -0.1269
     29 C19         1.6182   -0.6865   -7.3263 C.3       1 <0>        -0.1305
     30 C20         1.7932    0.7325   -6.7302 C.3       1 <0>         0.0896
     31 N3          0.7966    0.8115   -5.6423 N.am      1 <0>        -0.5904
     32 C21         0.2554    1.9429   -5.1490 C.2       1 <0>         0.5374
     33 O6         -0.6264    1.8814   -4.3185 O.2       1 <0>        -0.5157
     34 C22         0.7458    3.2845   -5.6292 C.3       1 <0>         0.1360
     35 H4          1.1346    3.1876   -6.6429 H         1 <0>         0.1140
     36 C23         1.8565    3.7831   -4.7025 C.3       1 <0>        -0.0936
     37 C24         3.0522    2.8318   -4.7817 C.3       1 <0>        -0.1597
     38 C25         2.2906    5.1850   -5.1350 C.3       1 <0>        -0.1361
     39 N4         -0.3634    4.2415   -5.6210 N.am      1 <0>        -0.6832
     40 C26        -0.3368    5.3110   -6.4408 C.2       1 <0>         0.5021
     41 O7          0.6054    5.4811   -7.1852 O.2       1 <0>        -0.5209
     42 C27        -1.4778    6.2954   -6.4323 C.3       1 <0>         0.0091
     43 H5         -1.8085    6.4595   -5.4067 H         1 <0>         0.1660
     44 C28        -2.6382    5.7383   -7.2594 C.3       1 <0>        -0.1806
     45 N5         -1.0302    7.5687   -7.0122 N.4       1 <0>        -0.6206
     46 H6         -0.7352    2.4683   -0.0794 H         1 <0>         0.0477
     47 H7         -1.8891    2.1290   -1.3915 H         1 <0>         0.0515
     48 H8         -2.4673    2.2809    0.2850 H         1 <0>         0.0465
     49 H9         -1.2014    0.2413    0.9064 H         1 <0>         0.0591
     50 H10        -2.3553   -0.0980   -0.4057 H         1 <0>         0.0579
     51 H11        -0.5333    0.1432   -2.0703 H         1 <0>         0.0694
     52 H12         0.6206    0.4825   -0.7582 H         1 <0>         0.0611
     53 H13         0.1544   -1.7445    0.2276 H         1 <0>         0.0777
     54 H14        -0.9995   -2.0838   -1.0845 H         1 <0>         0.0744
     55 H15         1.7909   -3.2020    0.5357 H         1 <0>         0.3898
     56 H16         2.5108   -4.8367    2.1598 H         1 <0>         0.0733
     57 H17         3.0703   -6.4243    1.5811 H         1 <0>         0.0970
     58 H18         5.0669   -6.6150    0.2127 H         1 <0>         0.1293
     59 H19         7.2464   -5.6360   -0.3791 H         1 <0>         0.1255
     60 H20         5.9097   -1.8283    1.0279 H         1 <0>         0.1234
     61 H21         3.7296   -2.8129    1.6083 H         1 <0>         0.1220
     62 H22         7.9622   -2.7791   -0.9401 H         1 <0>         0.3847
     63 H23         0.3095   -2.6362   -3.5956 H         1 <0>         0.4105
     64 H24         2.2466   -1.7996   -5.5492 H         1 <0>         0.0882
     65 H25         0.7381   -2.4107   -6.3043 H         1 <0>         0.1001
     66 H26         2.5353   -1.0229   -7.8101 H         1 <0>         0.0941
     67 H27         0.7781   -0.7180   -8.0201 H         1 <0>         0.0820
     68 H28         2.8007    0.8556   -6.3330 H         1 <0>         0.0822
     69 H29         1.5877    1.4898   -7.4868 H         1 <0>         0.0791
     70 H30         1.4866    3.8173   -3.6777 H         1 <0>         0.0852
     71 H31         3.3666    2.7291   -5.8203 H         1 <0>         0.0572
     72 H32         3.8755    3.2332   -4.1908 H         1 <0>         0.0664
     73 H33         2.7663    1.8555   -4.3904 H         1 <0>         0.0800
     74 H34         1.4387    5.8627   -5.0786 H         1 <0>         0.0362
     75 H35         3.0818    5.5402   -4.4748 H         1 <0>         0.0610
     76 H36         2.6604    5.1509   -6.1598 H         1 <0>         0.0686
     77 H37        -1.1169    4.1054   -5.0256 H         1 <0>         0.4190
     78 H38        -2.9703    4.7934   -6.8291 H         1 <0>         0.1132
     79 H39        -3.4634    6.4503   -7.2532 H         1 <0>         0.0994
     80 H40        -2.3075    5.5742   -8.2849 H         1 <0>         0.0909
     81 H41        -0.7241    7.4168   -7.9615 H         1 <0>         0.4418
     82 H42        -1.7942    8.2278   -7.0065 H         1 <0>         0.4428
     83 H43        -0.2650    7.9361   -6.4668 H         1 <0>         0.4403
@<TRIPOS>BOND
     1    1    2 1
     2    1   46 1
     3    1   47 1
     4    1   48 1
     5    2    3 1
     6    2   49 1
     7    2   50 1
     8    3    4 1
     9    3   51 1
    10    3   52 1
    11    4    5 1
    12    4   53 1
    13    4   54 1
    14    5    6 1
    15    5    7 1
    16    5   23 1
    17    7    8 2
    18    7    9 am
    19    9   10 1
    20    9   55 1
    21   10   11 1
    22   10   12 1
    23   10   20 1
    24   12   13 1
    25   12   56 1
    26   12   57 1
    27   13   18 ar
    28   13   14 ar
    29   14   15 ar
    30   14   58 1
    31   15   16 ar
    32   15   59 1
    33   16   17 ar
    34   16   19 1
    35   17   18 ar
    36   17   60 1
    37   18   61 1
    38   19   62 1
    39   20   21 2
    40   20   22 1
    41   23   24 am
    42   23   63 1
    43   24   25 2
    44   24   26 1
    45   26   27 1
    46   26   31 1
    47   26   28 1
    48   28   29 1
    49   28   64 1
    50   28   65 1
    51   29   30 1
    52   29   66 1
    53   29   67 1
    54   30   31 1
    55   30   68 1
    56   30   69 1
    57   31   32 am
    58   32   33 2
    59   32   34 1
    60   34   35 1
    61   34   36 1
    62   34   39 1
    63   36   37 1
    64   36   38 1
    65   36   70 1
    66   37   71 1
    67   37   72 1
    68   37   73 1
    69   38   74 1
    70   38   75 1
    71   38   76 1
    72   39   40 am
    73   39   77 1
    74   40   41 2
    75   40   42 1
    76   42   43 1
    77   42   44 1
    78   42   45 1
    79   44   78 1
    80   44   79 1
    81   44   80 1
    82   45   81 1
    83   45   82 1
    84   45   83 1
@<TRIPOS>MOLECULE
CHEMBL375349
   69    72     0     0     0
SMALL
USER_CHARGES

@<TRIPOS>ATOM
      1 C1         -0.0187    1.5258    0.0104 C.3       1 <0>        -0.1713
      2 C2          0.0021   -0.0041    0.0020 C.3       1 <0>        -0.1416
      3 C3          0.7421   -0.5109    1.2415 C.3       1 <0>         0.0120
      4 H1          0.2852   -0.0874    2.1360 H         1 <0>         0.1648
      5 C4          0.6567   -2.0144    1.2978 C.2       1 <0>         0.5149
      6 O1          1.5928   -2.6893    0.9247 O.2       1 <0>        -0.5160
      7 N1         -0.4599   -2.6091    1.7626 N.am      1 <0>        -0.6813
      8 C5         -0.5428   -4.0707    1.8173 C.3       1 <0>         0.1541
      9 H2          0.4412   -4.4721    2.0597 H         1 <0>         0.1203
     10 C6         -1.5164   -4.4671    2.9044 C.3       1 <0>        -0.1295
     11 C7         -1.5107   -5.9459    3.1858 C.3       1 <0>        -0.1172
     12 C8         -2.2991   -6.7702    2.2196 C.3       1 <0>        -0.1363
     13 C9         -1.6033   -6.9821    0.8823 C.3       1 <0>         0.1273
     14 H3         -0.6174   -7.4205    1.0365 H         1 <0>         0.0878
     15 C10        -2.4932   -7.9423    0.0519 C.3       1 <0>        -0.1287
     16 C11        -2.2311   -7.4806   -1.4006 C.3       1 <0>        -0.1277
     17 C12        -2.0438   -5.9604   -1.2394 C.3       1 <0>         0.1185
     18 H4         -1.3420   -5.5913   -1.9872 H         1 <0>         0.1130
     19 N2         -1.4885   -5.7295    0.1244 N.am      1 <0>        -0.5671
     20 C13        -0.9572   -4.5808    0.4845 C.2       1 <0>         0.5236
     21 O2         -0.7620   -3.8080   -0.4296 O.2       1 <0>        -0.5567
     22 C14        -3.3700   -5.2608   -1.3907 C.2       1 <0>         0.5192
     23 O3         -3.8236   -4.6152   -0.4697 O.2       1 <0>        -0.5230
     24 N3         -4.0519   -5.3526   -2.5496 N.am      1 <0>        -0.7201
     25 C15        -5.3411   -4.6725   -2.6967 C.3       1 <0>         0.2353
     26 C16        -5.5998   -4.3962   -4.1554 C.ar      1 <0>        -0.0926
     27 C17        -5.2750   -5.3451   -5.1067 C.ar      1 <0>        -0.1118
     28 C18        -5.5123   -5.0917   -6.4448 C.ar      1 <0>        -0.1130
     29 C19        -6.0747   -3.8896   -6.8315 C.ar      1 <0>        -0.1133
     30 C20        -6.4003   -2.9411   -5.8801 C.ar      1 <0>        -0.1133
     31 C21        -6.1670   -3.1962   -4.5416 C.ar      1 <0>        -0.1047
     32 C22        -6.4373   -5.5500   -2.1495 C.ar      1 <0>        -0.0916
     33 C23        -6.4068   -6.9139   -2.3722 C.ar      1 <0>        -0.1042
     34 C24        -7.4123   -7.7188   -1.8704 C.ar      1 <0>        -0.1186
     35 C25        -8.4481   -7.1599   -1.1454 C.ar      1 <0>        -0.1155
     36 C26        -8.4782   -5.7961   -0.9219 C.ar      1 <0>        -0.1162
     37 C27        -7.4704   -4.9917   -1.4201 C.ar      1 <0>        -0.1022
     38 N4          2.1515   -0.1027    1.1714 N.4       1 <0>        -0.6211
     39 H5          1.0039    1.9031    0.0027 H         1 <0>         0.0551
     40 H6         -0.5459    1.8868   -0.8726 H         1 <0>         0.0889
     41 H7         -0.5289    1.8773    0.9072 H         1 <0>         0.0754
     42 H8         -1.0205   -0.3814    0.0098 H         1 <0>         0.1174
     43 H9          0.5123   -0.3556   -0.8948 H         1 <0>         0.0986
     44 H10        -1.2085   -2.0693    2.0610 H         1 <0>         0.4134
     45 H11        -1.2570   -3.9345    3.8194 H         1 <0>         0.0851
     46 H12        -2.5208   -4.1713    2.6013 H         1 <0>         0.0815
     47 H13        -0.4781   -6.2948    3.1740 H         1 <0>         0.0663
     48 H14        -1.9135   -6.1078    4.1856 H         1 <0>         0.0824
     49 H15        -2.4922   -7.7440    2.6695 H         1 <0>         0.0867
     50 H16        -3.2547   -6.2774    2.0404 H         1 <0>         0.0765
     51 H17        -2.1794   -8.9769    0.1909 H         1 <0>         0.0957
     52 H18        -3.5441   -7.8179    0.3131 H         1 <0>         0.0841
     53 H19        -1.3263   -7.9422   -1.7961 H         1 <0>         0.0947
     54 H20        -3.0885   -7.6996   -2.0370 H         1 <0>         0.0920
     55 H21        -3.6891   -5.8689   -3.2862 H         1 <0>         0.4008
     56 H22        -5.3204   -3.7315   -2.1468 H         1 <0>         0.1016
     57 H23        -4.8356   -6.2843   -4.8046 H         1 <0>         0.1181
     58 H24        -5.2579   -5.8328   -7.1881 H         1 <0>         0.1264
     59 H25        -6.2594   -3.6913   -7.8769 H         1 <0>         0.1259
     60 H26        -6.8394   -2.0018   -6.1822 H         1 <0>         0.1265
     61 H27        -6.4248   -2.4567   -3.7980 H         1 <0>         0.1229
     62 H28        -5.5976   -7.3506   -2.9387 H         1 <0>         0.1146
     63 H29        -7.3889   -8.7844   -2.0450 H         1 <0>         0.1230
     64 H30        -9.2341   -7.7887   -0.7539 H         1 <0>         0.1235
     65 H31        -9.2876   -5.3593   -0.3558 H         1 <0>         0.1240
     66 H32        -7.4919   -3.9266   -1.2424 H         1 <0>         0.1198
     67 H33         2.6395   -0.4370    1.9889 H         1 <0>         0.4398
     68 H34         2.5744   -0.4948    0.3435 H         1 <0>         0.4426
     69 H35         2.2086    0.9039    1.1338 H         1 <0>         0.4405
@<TRIPOS>BOND
     1    1    2 1
     2    1   39 1
     3    1   40 1
     4    1   41 1
     5    2    3 1
     6    2   42 1
     7    2   43 1
     8    3    4 1
     9    3    5 1
    10    3   38 1
    11    5    6 2
    12    5    7 am
    13    7    8 1
    14    7   44 1
    15    8    9 1
    16    8   20 1
    17    8   10 1
    18   10   11 1
    19   10   45 1
    20   10   46 1
    21   11   12 1
    22   11   47 1
    23   11   48 1
    24   12   13 1
    25   12   49 1
    26   12   50 1
    27   13   14 1
    28   13   19 1
    29   13   15 1
    30   15   16 1
    31   15   51 1
    32   15   52 1
    33   16   17 1
    34   16   53 1
    35   16   54 1
    36   17   18 1
    37   17   19 1
    38   17   22 1
    39   19   20 am
    40   20   21 2
    41   22   23 2
    42   22   24 am
    43   24   25 1
    44   24   55 1
    45   25   26 1
    46   25   32 1
    47   25   56 1
    48   26   31 ar
    49   26   27 ar
    50   27   28 ar
    51   27   57 1
    52   28   29 ar
    53   28   58 1
    54   29   30 ar
    55   29   59 1
    56   30   31 ar
    57   30   60 1
    58   31   61 1
    59   32   37 ar
    60   32   33 ar
    61   33   34 ar
    62   33   62 1
    63   34   35 ar
    64   34   63 1
    65   35   36 ar
    66   35   64 1
    67   36   37 ar
    68   36   65 1
    69   37   66 1
    70   38   67 1
    71   38   68 1
    72   38   69 1
@<TRIPOS>MOLECULE
CHEMBL218832
   72    75     0     0     0
SMALL
USER_CHARGES

@<TRIPOS>ATOM
      1 C1          0.0468    1.8615    0.3171 C.3       1 <0>        -0.1731
      2 C2         -0.0572    0.3392    0.2054 C.3       1 <0>        -0.1436
      3 C3          0.8051   -0.3118    1.2887 C.3       1 <0>         0.0072
      4 H1          0.5133    0.0734    2.2656 H         1 <0>         0.1656
      5 C4          0.6073   -1.8055    1.2581 C.2       1 <0>         0.5210
      6 O1          1.5513   -2.5381    1.0510 O.2       1 <0>        -0.5190
      7 N1         -0.6188   -2.3271    1.4607 N.am      1 <0>        -0.6809
      8 C5         -0.8112   -3.7791    1.4310 C.3       1 <0>         0.1543
      9 H2          0.0727   -4.2616    1.8483 H         1 <0>         0.1203
     10 C6         -2.0112   -4.1331    2.2804 C.3       1 <0>        -0.1298
     11 C7         -2.1644   -5.6159    2.4897 C.3       1 <0>        -0.1171
     12 C8         -2.7933   -6.3477    1.3478 C.3       1 <0>        -0.1363
     13 C9         -1.8552   -6.5710    0.1701 C.3       1 <0>         0.1273
     14 H3         -0.9539   -7.0880    0.4997 H         1 <0>         0.0878
     15 C10        -2.6202   -7.4347   -0.8655 C.3       1 <0>        -0.1288
     16 C11        -2.0358   -6.9501   -2.2128 C.3       1 <0>        -0.1277
     17 C12        -1.7817   -5.4543   -1.9482 C.3       1 <0>         0.1186
     18 H4         -0.9183   -5.1171   -2.5216 H         1 <0>         0.1128
     19 N2         -1.5023   -5.3082   -0.4913 N.am      1 <0>        -0.5671
     20 C13        -0.9784   -4.2150    0.0203 C.2       1 <0>         0.5247
     21 O2         -0.5481   -3.4318   -0.7996 O.2       1 <0>        -0.5579
     22 C14        -2.9979   -4.6511   -2.3317 C.2       1 <0>         0.5190
     23 O3         -3.5848   -4.0013   -1.4926 O.2       1 <0>        -0.5227
     24 N3         -3.4333   -4.6550   -3.6072 N.am      1 <0>        -0.7202
     25 C15        -4.6155   -3.8743   -3.9801 C.3       1 <0>         0.2354
     26 C16        -4.5510   -3.5346   -5.4468 C.ar      1 <0>        -0.0926
     27 C17        -4.1045   -4.4759   -6.3554 C.ar      1 <0>        -0.1118
     28 C18        -4.0454   -4.1643   -7.7008 C.ar      1 <0>        -0.1130
     29 C19        -4.4332   -2.9115   -8.1378 C.ar      1 <0>        -0.1133
     30 C20        -4.8806   -1.9705   -7.2294 C.ar      1 <0>        -0.1133
     31 C21        -4.9438   -2.2835   -5.8845 C.ar      1 <0>        -0.1047
     32 C22        -5.8579   -4.6819   -3.7056 C.ar      1 <0>        -0.0917
     33 C23        -5.8760   -6.0368   -3.9794 C.ar      1 <0>        -0.1042
     34 C24        -7.0156   -6.7776   -3.7276 C.ar      1 <0>        -0.1186
     35 C25        -8.1369   -6.1636   -3.2016 C.ar      1 <0>        -0.1154
     36 C26        -8.1185   -4.8089   -2.9270 C.ar      1 <0>        -0.1161
     37 C27        -6.9774   -4.0690   -3.1747 C.ar      1 <0>        -0.1022
     38 N4          2.2193   -0.0001    1.0418 N.4       1 <0>        -0.4919
     39 C28         3.0310   -0.4849    2.1661 C.3       1 <0>        -0.0576
     40 H5          1.0556    2.1772    0.0510 H         1 <0>         0.0579
     41 H6         -0.6697    2.3254   -0.3608 H         1 <0>         0.0895
     42 H7         -0.1712    2.1665    1.3406 H         1 <0>         0.0740
     43 H8         -1.0958    0.0354    0.3364 H         1 <0>         0.1141
     44 H9          0.2928    0.0222   -0.7770 H         1 <0>         0.0988
     45 H10        -1.3739   -1.7411    1.6263 H         1 <0>         0.4129
     46 H11        -1.9084   -3.6502    3.2521 H         1 <0>         0.0853
     47 H12        -2.9097   -3.7523    1.7949 H         1 <0>         0.0813
     48 H13        -1.1776   -6.0421    2.6703 H         1 <0>         0.0663
     49 H14        -2.7731   -5.7772    3.3793 H         1 <0>         0.0824
     50 H15        -3.1406   -7.3173    1.7049 H         1 <0>         0.0866
     51 H16        -3.6561   -5.7781    1.0024 H         1 <0>         0.0765
     52 H17        -2.4131   -8.4939   -0.7133 H         1 <0>         0.0957
     53 H18        -3.6913   -7.2384   -0.8161 H         1 <0>         0.0841
     54 H19        -1.1031   -7.4670   -2.4384 H         1 <0>         0.0946
     55 H20        -2.7581   -7.0833   -3.0182 H         1 <0>         0.0920
     56 H21        -2.9638   -5.1748   -4.2783 H         1 <0>         0.4007
     57 H22        -4.6431   -2.9550   -3.3951 H         1 <0>         0.1016
     58 H23        -3.8015   -5.4547   -6.0139 H         1 <0>         0.1181
     59 H24        -3.6959   -4.8996   -8.4105 H         1 <0>         0.1264
     60 H25        -4.3864   -2.6678   -9.1889 H         1 <0>         0.1260
     61 H26        -5.1833   -0.9916   -7.5708 H         1 <0>         0.1265
     62 H27        -5.2968   -1.5496   -5.1752 H         1 <0>         0.1229
     63 H28        -5.0000   -6.5164   -4.3903 H         1 <0>         0.1146
     64 H29        -7.0301   -7.8359   -3.9422 H         1 <0>         0.1230
     65 H30        -9.0275   -6.7423   -3.0056 H         1 <0>         0.1235
     66 H31        -8.9946   -4.3292   -2.5163 H         1 <0>         0.1240
     67 H32        -6.9617   -3.0113   -2.9567 H         1 <0>         0.1198
     68 H33         2.5196   -0.4514    0.1908 H         1 <0>         0.4359
     69 H34         2.9737   -1.5724    2.2132 H         1 <0>         0.1379
     70 H35         4.0681   -0.1817    2.0228 H         1 <0>         0.1298
     71 H36         2.6536   -0.0605    3.0964 H         1 <0>         0.1211
     72 H37         2.3327    0.9984    0.9511 H         1 <0>         0.4325
@<TRIPOS>BOND
     1    1    2 1
     2    1   40 1
     3    1   41 1
     4    1   42 1
     5    2    3 1
     6    2   43 1
     7    2   44 1
     8    3    4 1
     9    3    5 1
    10    3   38 1
    11    5    6 2
    12    5    7 am
    13    7    8 1
    14    7   45 1
    15    8    9 1
    16    8   20 1
    17    8   10 1
    18   10   11 1
    19   10   46 1
    20   10   47 1
    21   11   12 1
    22   11   48 1
    23   11   49 1
    24   12   13 1
    25   12   50 1
    26   12   51 1
    27   13   14 1
    28   13   19 1
    29   13   15 1
    30   15   16 1
    31   15   52 1
    32   15   53 1
    33   16   17 1
    34   16   54 1
    35   16   55 1
    36   17   18 1
    37   17   19 1
    38   17   22 1
    39   19   20 am
    40   20   21 2
    41   22   23 2
    42   22   24 am
    43   24   25 1
    44   24   56 1
    45   25   26 1
    46   25   32 1
    47   25   57 1
    48   26   31 ar
    49   26   27 ar
    50   27   28 ar
    51   27   58 1
    52   28   29 ar
    53   28   59 1
    54   29   30 ar
    55   29   60 1
    56   30   31 ar
    57   30   61 1
    58   31   62 1
    59   32   37 ar
    60   32   33 ar
    61   33   34 ar
    62   33   63 1
    63   34   35 ar
    64   34   64 1
    65   35   36 ar
    66   35   65 1
    67   36   37 ar
    68   36   66 1
    69   37   67 1
    70   38   39 1
    71   38   68 1
    72   38   72 1
    73   39   69 1
    74   39   70 1
    75   39   71 1
@<TRIPOS>MOLECULE
CHEMBL184046
   77    79     0     0     0
SMALL
USER_CHARGES

@<TRIPOS>ATOM
      1 C1         -1.1510    0.0267    0.3577 C.3       1 <0>        -0.1747
      2 C2          0.0685    0.9272    0.5647 C.3       1 <0>        -0.0998
      3 C3         -0.3838    2.3862    0.6520 C.3       1 <0>        -0.1650
      4 C4          0.7779    0.5347    1.8622 C.3       1 <0>         0.0086
      5 H1          1.6031    1.2223    2.0475 H         1 <0>         0.1529
      6 C5         -0.1983    0.6011    3.0084 C.2       1 <0>         0.5174
      7 O1         -0.9320   -0.3376    3.2351 O.2       1 <0>        -0.4828
      8 N1         -0.2560    1.7036    3.7815 N.am      1 <0>        -0.5793
      9 C6          0.5067    2.9463    3.5639 C.3       1 <0>         0.0753
     10 C7         -0.3228    4.0490    4.2680 C.3       1 <0>        -0.1318
     11 C8         -0.8493    3.2934    5.5167 C.3       1 <0>        -0.1298
     12 C9         -1.0946    1.8684    4.9777 C.3       1 <0>         0.1217
     13 H2         -0.8117    1.1348    5.7327 H         1 <0>         0.1081
     14 C10        -2.5469    1.6986    4.6129 C.2       1 <0>         0.5195
     15 O2         -2.8733    1.6112    3.4481 O.2       1 <0>        -0.5267
     16 N2         -3.4830    1.6439    5.5810 N.am      1 <0>        -0.6956
     17 C11        -4.8776    1.3573    5.2360 C.3       1 <0>         0.1385
     18 H3         -4.9960    1.3802    4.1527 H         1 <0>         0.1192
     19 C12        -5.2586   -0.0282    5.7616 C.3       1 <0>        -0.0914
     20 C13        -4.4673   -1.0793    5.0267 C.ar      1 <0>        -0.0644
     21 C14        -4.9086   -1.5467    3.8028 C.ar      1 <0>        -0.1084
     22 C15        -4.1827   -2.5109    3.1287 C.ar      1 <0>        -0.1148
     23 C16        -3.0154   -3.0073    3.6782 C.ar      1 <0>        -0.1215
     24 C17        -2.5737   -2.5392    4.9015 C.ar      1 <0>        -0.1056
     25 C18        -3.2973   -1.5719    5.5737 C.ar      1 <0>        -0.1068
     26 C19        -5.7733    2.3955    5.8613 C.2       1 <0>         0.5093
     27 O3         -5.2939    3.2870    6.5293 O.2       1 <0>        -0.5419
     28 N3         -7.1071    2.3333    5.6781 N.am      1 <0>        -0.6842
     29 C20        -7.9778    3.3425    6.2860 C.3       1 <0>         0.0848
     30 H4         -7.4700    4.3070    6.2877 H         1 <0>         0.0841
     31 C21        -9.2739    3.4501    5.4800 C.3       1 <0>        -0.0775
     32 C22        -8.9652    3.9691    4.0993 C.ar      1 <0>        -0.0717
     33 C23        -8.9671    5.3305    3.8574 C.ar      1 <0>        -0.0991
     34 C24        -8.6849    5.8088    2.5925 C.ar      1 <0>        -0.1402
     35 C25        -8.3991    4.9220    1.5646 C.ar      1 <0>         0.0868
     36 C26        -8.3974    3.5566    1.8100 C.ar      1 <0>        -0.1421
     37 C27        -8.6751    3.0835    3.0779 C.ar      1 <0>        -0.1031
     38 O4         -8.1216    5.3901    0.3193 O.3       1 <0>        -0.5010
     39 C28        -8.2991    2.9414    7.7026 C.2       1 <0>         0.4912
     40 O5         -7.8430    1.9082    8.1620 O.co2     1 <0>        -0.6831
     41 O6         -9.0151    3.6500    8.3894 O.co2     1 <0>        -0.6908
     42 N4          1.2985   -0.8336    1.7411 N.4       1 <0>        -0.4971
     43 C29         2.3761   -0.8609    0.7430 C.3       1 <0>        -0.0487
     44 H5         -1.8147    0.1104    1.2182 H         1 <0>         0.0956
     45 H6         -1.6823    0.3359   -0.5424 H         1 <0>         0.0818
     46 H7         -0.8247   -1.0077    0.2497 H         1 <0>         0.0497
     47 H8          0.7541    0.8090   -0.2743 H         1 <0>         0.1021
     48 H9         -0.9329    2.5414    1.5808 H         1 <0>         0.0826
     49 H10         0.4889    3.0390    0.6324 H         1 <0>         0.0681
     50 H11        -1.0298    2.6177   -0.1949 H         1 <0>         0.0826
     51 H12         1.4955    2.8687    4.0160 H         1 <0>         0.0824
     52 H13         0.5915    3.1578    2.4980 H         1 <0>         0.0909
     53 H14         0.3092    4.8887    4.5571 H         1 <0>         0.0979
     54 H15        -1.1466    4.3814    3.6363 H         1 <0>         0.0848
     55 H16        -0.0995    3.2867    6.3078 H         1 <0>         0.0958
     56 H17        -1.7808    3.7351    5.8704 H         1 <0>         0.1019
     57 H18        -3.2332    1.7943    6.5062 H         1 <0>         0.4081
     58 H19        -5.0375   -0.0860    6.8273 H         1 <0>         0.0882
     59 H20        -6.3235   -0.1972    5.6018 H         1 <0>         0.0940
     60 H21        -5.8206   -1.1589    3.3736 H         1 <0>         0.1176
     61 H22        -4.5278   -2.8766    2.1729 H         1 <0>         0.1139
     62 H23        -2.4487   -3.7611    3.1518 H         1 <0>         0.1084
     63 H24        -1.6619   -2.9272    5.3310 H         1 <0>         0.1087
     64 H25        -2.9502   -1.2035    6.5277 H         1 <0>         0.1126
     65 H26        -7.4906    1.6202    5.1439 H         1 <0>         0.3885
     66 H27        -9.7367    2.4662    5.4032 H         1 <0>         0.0736
     67 H28        -9.9577    4.1351    5.9813 H         1 <0>         0.0974
     68 H29        -9.1897    6.0204    4.6579 H         1 <0>         0.1294
     69 H30        -8.6872    6.8722    2.4039 H         1 <0>         0.1255
     70 H31        -8.1752    2.8642    1.0115 H         1 <0>         0.1229
     71 H32        -8.6696    2.0209    3.2705 H         1 <0>         0.1214
     72 H33        -7.1831    5.5639    0.1645 H         1 <0>         0.3839
     73 H34         1.6589   -1.1366    2.6335 H         1 <0>         0.4316
     74 H35         3.1222   -0.1067    0.9931 H         1 <0>         0.1254
     75 H36         2.8426   -1.8460    0.7389 H         1 <0>         0.1318
     76 H37         1.9630   -0.6503   -0.2435 H         1 <0>         0.1264
     77 H38         0.5556   -1.4516    1.4510 H         1 <0>         0.4361
@<TRIPOS>BOND
     1    1    2 1
     2    1   44 1
     3    1   45 1
     4    1   46 1
     5    2    3 1
     6    2    4 1
     7    2   47 1
     8    3   48 1
     9    3   49 1
    10    3   50 1
    11    4    5 1
    12    4    6 1
    13    4   42 1
    14    6    7 2
    15    6    8 am
    16    8   12 1
    17    8    9 1
    18    9   10 1
    19    9   51 1
    20    9   52 1
    21   10   11 1
    22   10   53 1
    23   10   54 1
    24   11   12 1
    25   11   55 1
    26   11   56 1
    27   12   13 1
    28   12   14 1
    29   14   15 2
    30   14   16 am
    31   16   17 1
    32   16   57 1
    33   17   18 1
    34   17   19 1
    35   17   26 1
    36   19   20 1
    37   19   58 1
    38   19   59 1
    39   20   25 ar
    40   20   21 ar
    41   21   22 ar
    42   21   60 1
    43   22   23 ar
    44   22   61 1
    45   23   24 ar
    46   23   62 1
    47   24   25 ar
    48   24   63 1
    49   25   64 1
    50   26   27 2
    51   26   28 am
    52   28   29 1
    53   28   65 1
    54   29   30 1
    55   29   31 1
    56   29   39 1
    57   31   32 1
    58   31   66 1
    59   31   67 1
    60   32   37 ar
    61   32   33 ar
    62   33   34 ar
    63   33   68 1
    64   34   35 ar
    65   34   69 1
    66   35   36 ar
    67   35   38 1
    68   36   37 ar
    69   36   70 1
    70   37   71 1
    71   38   72 1
    72   39   40 2
    73   39   41 1
    74   42   43 1
    75   42   73 1
    76   42   77 1
    77   43   74 1
    78   43   75 1
    79   43   76 1
@<TRIPOS>MOLECULE
CHEMBL573548
   78    81     0     0     0
SMALL
USER_CHARGES

@<TRIPOS>ATOM
      1 C1          0.1675    1.8717   -0.1937 C.3       1 <0>        -0.1727
      2 C2          0.1964    0.3488   -0.0497 C.3       1 <0>        -0.1428
      3 C3          0.7336   -0.2753   -1.3393 C.3       1 <0>         0.0088
      4 H1          1.7030    0.1621   -1.5782 H         1 <0>         0.1614
      5 C4          0.8860   -1.7628   -1.1519 C.2       1 <0>         0.5096
      6 O1          0.0403   -2.5180   -1.5826 O.2       1 <0>        -0.4865
      7 N1          1.9620   -2.2539   -0.5058 N.am      1 <0>        -0.7011
      8 C5          2.1099   -3.6971   -0.3241 C.3       1 <0>         0.1561
      9 H2          1.6998   -4.1946   -1.2170 H         1 <0>         0.1345
     10 C6          3.5807   -4.0803   -0.1990 C.3       1 <0>        -0.1323
     11 H3          3.6652   -5.0413    0.3150 H         1 <0>         0.1250
     12 C7          4.3637   -3.0174    0.5642 C.3       1 <0>        -0.1400
     13 C8          3.7676   -2.7769    1.9463 C.3       1 <0>        -0.1419
     14 C9          3.2111   -4.0827    2.5102 C.3       1 <0>         0.1290
     15 H4          3.8107   -4.9236    2.1566 H         1 <0>         0.0846
     16 C10         3.2527   -4.0302    4.0472 C.3       1 <0>        -0.1285
     17 C11         1.9647   -4.7552    4.4822 C.3       1 <0>        -0.1282
     18 C12         1.0026   -4.5619    3.2985 C.3       1 <0>         0.1166
     19 H5          0.4280   -5.4758    3.1325 H         1 <0>         0.1134
     20 N2          1.8133   -4.2558    2.1066 N.am      1 <0>        -0.5808
     21 C13         1.3145   -4.1511    0.8632 C.2       1 <0>         0.5174
     22 O2          0.1478   -4.4500    0.6897 O.2       1 <0>        -0.4961
     23 C14         0.0618   -3.4184    3.5943 C.2       1 <0>         0.5193
     24 O3          0.0564   -2.4375    2.8810 O.2       1 <0>        -0.5327
     25 N3         -0.7719   -3.4878    4.6510 N.am      1 <0>        -0.7159
     26 C15        -1.6847   -2.3784    4.9380 C.3       1 <0>         0.2384
     27 C16        -2.8729   -2.8922    5.7094 C.ar      1 <0>        -0.0996
     28 C17        -2.6959   -3.8366    6.7033 C.ar      1 <0>        -0.1126
     29 C18        -3.7858   -4.3079    7.4109 C.ar      1 <0>        -0.1114
     30 C19        -5.0527   -3.8345    7.1250 C.ar      1 <0>        -0.1091
     31 C20        -5.2297   -2.8894    6.1318 C.ar      1 <0>        -0.1114
     32 C21        -4.1392   -2.4150    5.4271 C.ar      1 <0>        -0.1042
     33 C22        -0.9669   -1.3362    5.7563 C.ar      1 <0>        -0.0910
     34 C23        -0.0980   -1.7229    6.7595 C.ar      1 <0>        -0.1048
     35 C24         0.5604   -0.7670    7.5102 C.ar      1 <0>        -0.1170
     36 C25         0.3502    0.5757    7.2574 C.ar      1 <0>        -0.1146
     37 C26        -0.5180    0.9624    6.2536 C.ar      1 <0>        -0.1164
     38 C27        -1.1731    0.0064    5.5001 C.ar      1 <0>        -0.1041
     39 C28         4.1804   -4.2307   -1.6049 C.3       1 <0>        -0.0069
     40 N4          5.5629   -4.7155   -1.4983 N.4       1 <0>        -0.6381
     41 N5         -0.2057   -0.0138   -2.4381 N.4       1 <0>        -0.4965
     42 C29         0.3742   -0.4887   -3.7014 C.3       1 <0>        -0.0539
     43 H6          1.1545    2.2275   -0.4895 H         1 <0>         0.0738
     44 H7         -0.5622    2.1511   -0.9537 H         1 <0>         0.0594
     45 H8         -0.1103    2.3216    0.7595 H         1 <0>         0.0928
     46 H9          0.8435    0.0748    0.7835 H         1 <0>         0.1167
     47 H10        -0.8128   -0.0176    0.1383 H         1 <0>         0.1002
     48 H11         2.6384   -1.6499   -0.1614 H         1 <0>         0.4123
     49 H12         5.4005   -3.3583    0.6830 H         1 <0>         0.0812
     50 H13         4.3806   -2.0845    0.0004 H         1 <0>         0.0851
     51 H14         4.5472   -2.4021    2.6156 H         1 <0>         0.0994
     52 H15         2.9717   -2.0360    1.8883 H         1 <0>         0.0842
     53 H16         4.1286   -4.5566    4.4240 H         1 <0>         0.0974
     54 H17         3.2465   -2.9991    4.3960 H         1 <0>         0.0853
     55 H18         2.1607   -5.8128    4.6474 H         1 <0>         0.0972
     56 H19         1.5592   -4.2955    5.3834 H         1 <0>         0.0943
     57 H20        -0.7677   -4.2723    5.2215 H         1 <0>         0.4030
     58 H21        -2.0235   -1.9351    4.0016 H         1 <0>         0.1001
     59 H22        -1.7061   -4.2065    6.9266 H         1 <0>         0.1168
     60 H23        -3.6476   -5.0462    8.1869 H         1 <0>         0.1281
     61 H24        -5.9044   -4.2032    7.6774 H         1 <0>         0.1285
     62 H25        -6.2195   -2.5198    5.9083 H         1 <0>         0.1283
     63 H26        -4.2769   -1.6739    4.6537 H         1 <0>         0.1215
     64 H27         0.0661   -2.7720    6.9570 H         1 <0>         0.1146
     65 H28         1.2387   -1.0691    8.2944 H         1 <0>         0.1241
     66 H29         0.8641    1.3226    7.8443 H         1 <0>         0.1247
     67 H30        -0.6824    2.0115    6.0563 H         1 <0>         0.1238
     68 H31        -1.8485    0.3085    4.7134 H         1 <0>         0.1179
     69 H32         3.5883   -4.9442   -2.1780 H         1 <0>         0.1446
     70 H33         4.1721   -3.2641   -2.1088 H         1 <0>         0.1368
     71 H34         6.1110   -4.0550   -0.9678 H         1 <0>         0.4351
     72 H35         5.5706   -5.6102   -1.0319 H         1 <0>         0.4404
     73 H36        -1.0725   -0.4994   -2.2623 H         1 <0>         0.4404
     74 H37         0.4710   -1.5740   -3.6715 H         1 <0>         0.1249
     75 H38        -0.2758   -0.2046   -4.5290 H         1 <0>         0.1368
     76 H39         1.3576   -0.0399   -3.8412 H         1 <0>         0.1232
     77 H40         5.9569   -4.8143   -2.4220 H         1 <0>         0.4453
     78 H41        -0.3824    0.9776   -2.5008 H         1 <0>         0.4387
@<TRIPOS>BOND
     1    1    2 1
     2    1   43 1
     3    1   44 1
     4    1   45 1
     5    2    3 1
     6    2   46 1
     7    2   47 1
     8    3    4 1
     9    3    5 1
    10    3   41 1
    11    5    6 2
    12    5    7 am
    13    7    8 1
    14    7   48 1
    15    8    9 1
    16    8   21 1
    17    8   10 1
    18   10   11 1
    19   10   12 1
    20   10   39 1
    21   12   13 1
    22   12   49 1
    23   12   50 1
    24   13   14 1
    25   13   51 1
    26   13   52 1
    27   14   15 1
    28   14   20 1
    29   14   16 1
    30   16   17 1
    31   16   53 1
    32   16   54 1
    33   17   18 1
    34   17   55 1
    35   17   56 1
    36   18   19 1
    37   18   20 1
    38   18   23 1
    39   20   21 am
    40   21   22 2
    41   23   24 2
    42   23   25 am
    43   25   26 1
    44   25   57 1
    45   26   27 1
    46   26   33 1
    47   26   58 1
    48   27   32 ar
    49   27   28 ar
    50   28   29 ar
    51   28   59 1
    52   29   30 ar
    53   29   60 1
    54   30   31 ar
    55   30   61 1
    56   31   32 ar
    57   31   62 1
    58   32   63 1
    59   33   38 ar
    60   33   34 ar
    61   34   35 ar
    62   34   64 1
    63   35   36 ar
    64   35   65 1
    65   36   37 ar
    66   36   66 1
    67   37   38 ar
    68   37   67 1
    69   38   68 1
    70   39   40 1
    71   39   69 1
    72   39   70 1
    73   40   71 1
    74   40   72 1
    75   40   77 1
    76   41   42 1
    77   41   73 1
    78   41   78 1
    79   42   74 1
    80   42   75 1
    81   42   76 1
@<TRIPOS>MOLECULE
CHEMBL363529
   75    78     0     0     0
SMALL
USER_CHARGES

@<TRIPOS>ATOM
      1 C1         -0.5245   -0.2487   -0.4097 C.3       1 <0>        -0.1839
      2 C2         -0.0332   -1.6102    0.0862 C.3       1 <0>         0.0051
      3 C3          0.7739   -1.4248    1.3453 C.2       1 <0>         0.5052
      4 O1          1.9338   -1.7773    1.3795 O.2       1 <0>        -0.5213
      5 N1          0.2066   -0.8673    2.4333 N.am      1 <0>        -0.6807
      6 C4          0.9912   -0.6871    3.6574 C.3       1 <0>         0.1372
      7 H1          1.6875   -1.5184    3.7683 H         1 <0>         0.1166
      8 C5          1.7730    0.6253    3.5734 C.3       1 <0>        -0.0926
      9 C6          0.8077    1.7763    3.2828 C.3       1 <0>        -0.1124
     10 C7          1.5895    3.0888    3.1988 C.3       1 <0>        -0.1194
     11 C8          2.6243    2.9951    2.0758 C.3       1 <0>        -0.1190
     12 C9          3.5896    1.8442    2.3664 C.3       1 <0>        -0.1234
     13 C10         2.8078    0.5317    2.4504 C.3       1 <0>        -0.0999
     14 C11         0.0655   -0.6453    4.8458 C.2       1 <0>         0.5370
     15 O2         -1.0999   -0.3444    4.6964 O.2       1 <0>        -0.5127
     16 N2          0.5326   -0.9423    6.0746 N.am      1 <0>        -0.5952
     17 C12         1.9416   -1.2090    6.4169 C.3       1 <0>         0.0913
     18 C13         2.0526   -0.8773    7.9260 C.3       1 <0>        -0.1330
     19 C14         0.6842   -1.3801    8.4570 C.3       1 <0>        -0.1265
     20 C15        -0.2776   -1.0477    7.2969 C.3       1 <0>         0.1190
     21 H2         -1.0123   -1.8453    7.1870 H         1 <0>         0.1047
     22 C16        -0.9743    0.2615    7.5645 C.2       1 <0>         0.5088
     23 O3         -0.8148    1.1984    6.8110 O.2       1 <0>        -0.5103
     24 N3         -1.7747    0.3913    8.6411 N.am      1 <0>        -0.7223
     25 C17        -2.4520    1.6640    8.9012 C.3       1 <0>         0.1916
     26 C18        -2.7312    1.7893   10.3975 C.3       1 <0>        -0.1261
     27 C19        -3.6267    3.0136   10.6215 C.3       1 <0>        -0.1164
     28 C20        -5.0137    2.7044   10.0618 C.3       1 <0>        -0.0854
     29 C21        -4.9124    2.1936    8.6483 C.ar      1 <0>        -0.0664
     30 C22        -3.7369    1.7123    8.1166 C.ar      1 <0>        -0.1012
     31 C23        -3.7130    1.2497    6.8074 C.ar      1 <0>        -0.1043
     32 C24        -4.8560    1.2719    6.0348 C.ar      1 <0>        -0.1286
     33 C25        -6.0350    1.7587    6.5673 C.ar      1 <0>        -0.1140
     34 C26        -6.0613    2.2169    7.8685 C.ar      1 <0>        -0.1273
     35 N4          0.8059   -2.2336   -0.9460 N.4       1 <0>        -0.4940
     36 C27        -0.0111   -2.5237   -2.1319 C.3       1 <0>        -0.0502
     37 H3          0.3318    0.3927   -0.6182 H         1 <0>         0.0910
     38 H4         -1.1083   -0.3828   -1.3204 H         1 <0>         0.0996
     39 H5         -1.1471    0.2138    0.3561 H         1 <0>         0.1118
     40 H6         -0.8895   -2.2516    0.2946 H         1 <0>         0.1667
     41 H7         -0.7211   -0.5854    2.4060 H         1 <0>         0.4189
     42 H8          2.2804    0.8072    4.5208 H         1 <0>         0.0903
     43 H9          0.3002    1.5944    2.3354 H         1 <0>         0.0556
     44 H10         0.0705    1.8430    4.0829 H         1 <0>         0.0776
     45 H11         0.9018    3.9087    2.9918 H         1 <0>         0.0649
     46 H12         2.0969    3.2706    4.1462 H         1 <0>         0.0643
     47 H13         2.1169    2.8132    1.1284 H         1 <0>         0.0553
     48 H14         3.1813    3.9301    2.0160 H         1 <0>         0.0645
     49 H15         4.3268    1.7774    1.5664 H         1 <0>         0.0638
     50 H16         4.0970    2.0260    3.3138 H         1 <0>         0.0650
     51 H17         3.4955   -0.2883    2.6574 H         1 <0>         0.0693
     52 H18         2.3004    0.3498    1.5030 H         1 <0>         0.0557
     53 H19         2.1831   -2.2571    6.2401 H         1 <0>         0.0799
     54 H20         2.6015   -0.5637    5.8371 H         1 <0>         0.0832
     55 H21         2.8753   -1.4242    8.3867 H         1 <0>         0.0965
     56 H22         2.1624    0.1957    8.0831 H         1 <0>         0.0821
     57 H23         0.7136   -2.4537    8.6429 H         1 <0>         0.0946
     58 H24         0.3982   -0.8391    9.3590 H         1 <0>         0.0924
     59 H25        -1.9023   -0.3580    9.2437 H         1 <0>         0.4013
     60 H26        -1.8076    2.4849    8.5864 H         1 <0>         0.0977
     61 H27        -3.2395    0.8928   10.7524 H         1 <0>         0.0734
     62 H28        -1.7926    1.9175   10.9366 H         1 <0>         0.0761
     63 H29        -3.7000    3.2245   11.6884 H         1 <0>         0.0774
     64 H30        -3.2059    3.8758   10.1043 H         1 <0>         0.0695
     65 H31        -5.4920    1.9479   10.6839 H         1 <0>         0.0788
     66 H32        -5.6167    3.6123   10.0735 H         1 <0>         0.0784
     67 H33        -2.7920    0.8698    6.3904 H         1 <0>         0.1370
     68 H34        -4.8294    0.9105    5.0174 H         1 <0>         0.1158
     69 H35        -6.9324    1.7806    5.9668 H         1 <0>         0.1203
     70 H36        -6.9829    2.5968    8.2839 H         1 <0>         0.1216
     71 H37         1.5528   -1.6037   -1.1979 H         1 <0>         0.4346
     72 H38        -0.4330   -1.5959   -2.5182 H         1 <0>         0.1274
     73 H39         0.6115   -2.9862   -2.8977 H         1 <0>         0.1334
     74 H40        -0.8179   -3.2041   -1.8597 H         1 <0>         0.1265
     75 H41         1.1965   -3.0925   -0.5884 H         1 <0>         0.4375
@<TRIPOS>BOND
     1    1    2 1
     2    1   37 1
     3    1   38 1
     4    1   39 1
     5    2    3 1
     6    2   35 1
     7    2   40 1
     8    3    4 2
     9    3    5 am
    10    5    6 1
    11    5   41 1
    12    6    7 1
    13    6    8 1
    14    6   14 1
    15    8   13 1
    16    8    9 1
    17    8   42 1
    18    9   10 1
    19    9   43 1
    20    9   44 1
    21   10   11 1
    22   10   45 1
    23   10   46 1
    24   11   12 1
    25   11   47 1
    26   11   48 1
    27   12   13 1
    28   12   49 1
    29   12   50 1
    30   13   51 1
    31   13   52 1
    32   14   15 2
    33   14   16 am
    34   16   20 1
    35   16   17 1
    36   17   18 1
    37   17   53 1
    38   17   54 1
    39   18   19 1
    40   18   55 1
    41   18   56 1
    42   19   20 1
    43   19   57 1
    44   19   58 1
    45   20   21 1
    46   20   22 1
    47   22   23 2
    48   22   24 am
    49   24   25 1
    50   24   59 1
    51   25   30 1
    52   25   26 1
    53   25   60 1
    54   26   27 1
    55   26   61 1
    56   26   62 1
    57   27   28 1
    58   27   63 1
    59   27   64 1
    60   28   29 1
    61   28   65 1
    62   28   66 1
    63   29   34 ar
    64   29   30 ar
    65   30   31 ar
    66   31   32 ar
    67   31   67 1
    68   32   33 ar
    69   32   68 1
    70   33   34 ar
    71   33   69 1
    72   34   70 1
    73   35   36 1
    74   35   71 1
    75   35   75 1
    76   36   72 1
    77   36   73 1
    78   36   74 1
@<TRIPOS>MOLECULE
CHEMBL363529__1
   75    78     0     0     0
SMALL
USER_CHARGES

@<TRIPOS>ATOM
      1 C1         -0.1767   -1.0017   -0.5365 C.3       1 <0>        -0.1838
      2 C2          0.6298   -2.1224    0.1227 C.3       1 <0>         0.0053
      3 C3          1.2346   -1.6174    1.4073 C.2       1 <0>         0.5053
      4 O1          2.4388   -1.6176    1.5519 O.2       1 <0>        -0.5191
      5 N1          0.4373   -1.1653    2.3955 N.am      1 <0>        -0.6857
      6 C4          1.0253   -0.6744    3.6443 C.3       1 <0>         0.1364
      7 H1          1.9138   -1.2592    3.8822 H         1 <0>         0.1140
      8 C5          1.4116    0.7972    3.4822 C.3       1 <0>        -0.0878
      9 C6          1.9343    1.3370    4.8149 C.3       1 <0>        -0.1222
     10 C7          2.3206    2.8086    4.6528 C.3       1 <0>        -0.1155
     11 C8          3.4120    2.9350    3.5881 C.3       1 <0>        -0.1222
     12 C9          2.8893    2.3951    2.2553 C.3       1 <0>        -0.1214
     13 C10         2.5030    0.9236    2.4174 C.3       1 <0>        -0.0993
     14 C11         0.0211   -0.8101    4.7598 C.2       1 <0>         0.5363
     15 O2         -1.1449   -0.5410    4.5621 O.2       1 <0>        -0.5105
     16 N2          0.4187   -1.2306    5.9770 N.am      1 <0>        -0.5946
     17 C12         1.8115   -1.4925    6.3828 C.3       1 <0>         0.0864
     18 C13         1.8127   -1.3310    7.9235 C.3       1 <0>        -0.1330
     19 C14         0.4324   -1.9311    8.3006 C.3       1 <0>        -0.1272
     20 C15        -0.4642   -1.4979    7.1218 C.3       1 <0>         0.1187
     21 H2         -1.1602   -2.2993    6.8740 H         1 <0>         0.1046
     22 C16        -1.2248   -0.2487    7.4851 C.2       1 <0>         0.5084
     23 O3         -1.0519    0.7719    6.8531 O.2       1 <0>        -0.5091
     24 N3         -2.0972   -0.2656    8.5122 N.am      1 <0>        -0.7218
     25 C17        -2.8366    0.9488    8.8654 C.3       1 <0>         0.1912
     26 C18        -4.1464    0.5602    9.5483 C.3       1 <0>        -0.1258
     27 C19        -4.7988    1.8323   10.1024 C.3       1 <0>        -0.1165
     28 C20        -3.9604    2.3307   11.2778 C.3       1 <0>        -0.0853
     29 C21        -2.5092    2.4333   10.8871 C.ar      1 <0>        -0.0664
     30 C22        -1.9924    1.7956    9.7814 C.ar      1 <0>        -0.0975
     31 C23        -0.6430    1.9262    9.4804 C.ar      1 <0>        -0.1067
     32 C24         0.1824    2.6922   10.2778 C.ar      1 <0>        -0.1286
     33 C25        -0.3372    3.3354   11.3854 C.ar      1 <0>        -0.1123
     34 C26        -1.6772    3.2053   11.6873 C.ar      1 <0>        -0.1244
     35 N4          1.7002   -2.5549   -0.7856 N.4       1 <0>        -0.4941
     36 C27         1.1087   -3.1572   -1.9878 C.3       1 <0>        -0.0502
     37 H3          0.4804   -0.1589   -0.7510 H         1 <0>         0.0913
     38 H4         -0.6141   -1.3670   -1.4656 H         1 <0>         0.0997
     39 H5         -0.9709   -0.6808    0.1375 H         1 <0>         0.1121
     40 H6         -0.0273   -2.9652    0.3372 H         1 <0>         0.1668
     41 H7         -0.5258   -1.1651    2.2799 H         1 <0>         0.4173
     42 H8          0.5369    1.3708    3.1757 H         1 <0>         0.0847
     43 H9          1.1567    1.2470    5.5735 H         1 <0>         0.0806
     44 H10         2.8090    0.7634    5.1214 H         1 <0>         0.0647
     45 H11         1.4459    3.3822    4.3464 H         1 <0>         0.0636
     46 H12         2.6930    3.1932    5.6023 H         1 <0>         0.0671
     47 H13         3.6872    3.9833    3.4726 H         1 <0>         0.0651
     48 H14         4.2867    2.3613    3.8945 H         1 <0>         0.0629
     49 H15         2.0146    2.9688    1.9489 H         1 <0>         0.0608
     50 H16         3.6669    2.4852    1.4968 H         1 <0>         0.0632
     51 H17         3.3777    0.3499    2.7239 H         1 <0>         0.0714
     52 H18         2.1307    0.5390    1.4680 H         1 <0>         0.0510
     53 H19         2.1027   -2.5062    6.1075 H         1 <0>         0.0780
     54 H20         2.4831   -0.7664    5.9248 H         1 <0>         0.0874
     55 H21         2.6236   -1.9020    8.3756 H         1 <0>         0.0964
     56 H22         1.8721   -0.2799    8.2061 H         1 <0>         0.0821
     57 H23         0.4896   -3.0175    8.3676 H         1 <0>         0.0945
     58 H24         0.0690   -1.5046    9.2356 H         1 <0>         0.0925
     59 H25        -2.2355   -1.0819    9.0177 H         1 <0>         0.4011
     60 H26        -3.0580    1.5113    7.9584 H         1 <0>         0.0982
     61 H27        -4.8128    0.0913    8.8244 H         1 <0>         0.0755
     62 H28        -3.9433   -0.1334   10.3642 H         1 <0>         0.0734
     63 H29        -4.8324    2.5961    9.3254 H         1 <0>         0.0695
     64 H30        -5.8102    1.6084   10.4417 H         1 <0>         0.0772
     65 H31        -4.3202    3.3126   11.5852 H         1 <0>         0.0787
     66 H32        -4.0600    1.6349   12.1109 H         1 <0>         0.0791
     67 H33        -0.2362    1.4238    8.6152 H         1 <0>         0.1261
     68 H34         1.2309    2.7884   10.0376 H         1 <0>         0.1181
     69 H35         0.3036    3.9375   12.0125 H         1 <0>         0.1222
     70 H36        -2.0824    3.7080   12.5530 H         1 <0>         0.1224
     71 H37         2.2600   -1.7579   -1.0494 H         1 <0>         0.4349
     72 H38         0.4802   -2.4222   -2.4908 H         1 <0>         0.1275
     73 H39         1.9030   -3.4781   -2.6618 H         1 <0>         0.1336
     74 H40         0.5040   -4.0181   -1.7029 H         1 <0>         0.1265
     75 H41         2.2820   -3.2352   -0.3201 H         1 <0>         0.4375
@<TRIPOS>BOND
     1    1    2 1
     2    1   37 1
     3    1   38 1
     4    1   39 1
     5    2    3 1
     6    2   35 1
     7    2   40 1
     8    3    4 2
     9    3    5 am
    10    5    6 1
    11    5   41 1
    12    6    7 1
    13    6    8 1
    14    6   14 1
    15    8   13 1
    16    8    9 1
    17    8   42 1
    18    9   10 1
    19    9   43 1
    20    9   44 1
    21   10   11 1
    22   10   45 1
    23   10   46 1
    24   11   12 1
    25   11   47 1
    26   11   48 1
    27   12   13 1
    28   12   49 1
    29   12   50 1
    30   13   51 1
    31   13   52 1
    32   14   15 2
    33   14   16 am
    34   16   20 1
    35   16   17 1
    36   17   18 1
    37   17   53 1
    38   17   54 1
    39   18   19 1
    40   18   55 1
    41   18   56 1
    42   19   20 1
    43   19   57 1
    44   19   58 1
    45   20   21 1
    46   20   22 1
    47   22   23 2
    48   22   24 am
    49   24   25 1
    50   24   59 1
    51   25   30 1
    52   25   26 1
    53   25   60 1
    54   26   27 1
    55   26   61 1
    56   26   62 1
    57   27   28 1
    58   27   63 1
    59   27   64 1
    60   28   29 1
    61   28   65 1
    62   28   66 1
    63   29   34 ar
    64   29   30 ar
    65   30   31 ar
    66   31   32 ar
    67   31   67 1
    68   32   33 ar
    69   32   68 1
    70   33   34 ar
    71   33   69 1
    72   34   70 1
    73   35   36 1
    74   35   71 1
    75   35   75 1
    76   36   72 1
    77   36   73 1
    78   36   74 1
@<TRIPOS>MOLECULE
CHEMBL363529__2
   75    78     0     0     0
SMALL
USER_CHARGES

@<TRIPOS>ATOM
      1 C1          1.8908    2.0551   -0.3835 C.3       1 <0>        -0.1826
      2 C2          1.4869    0.6065   -0.1014 C.3       1 <0>         0.0047
      3 C3          1.5808   -0.1977   -1.3724 C.2       1 <0>         0.5053
      4 O1          2.3252   -1.1533   -1.4318 O.2       1 <0>        -0.5212
      5 N1          0.8374    0.1449   -2.4431 N.am      1 <0>        -0.6806
      6 C4          0.9286   -0.6369   -3.6787 C.3       1 <0>         0.1373
      7 H1          1.9522   -0.9870   -3.8124 H         1 <0>         0.1167
      8 C5         -0.0143   -1.8387   -3.5926 C.3       1 <0>        -0.0930
      9 C6         -1.4295   -1.3545   -3.2704 C.3       1 <0>        -0.1125
     10 C7         -2.3725   -2.5563   -3.1842 C.3       1 <0>        -0.1194
     11 C8         -1.8936   -3.5023   -2.0812 C.3       1 <0>        -0.1194
     12 C9         -0.4784   -3.9864   -2.4034 C.3       1 <0>        -0.1234
     13 C10         0.4645   -2.7847   -2.4895 C.3       1 <0>        -0.0998
     14 C11         0.5361    0.2267   -4.8497 C.2       1 <0>         0.5372
     15 O2         -0.1601    1.2044   -4.6757 O.2       1 <0>        -0.5126
     16 N2          0.9587   -0.0876   -6.0903 N.am      1 <0>        -0.5952
     17 C12         1.7068   -1.3026   -6.4611 C.3       1 <0>         0.0913
     18 C13         1.4100   -1.5068   -7.9677 C.3       1 <0>        -0.1330
     19 C14         1.3787   -0.0426   -8.4803 C.3       1 <0>        -0.1266
     20 C15         0.7444    0.7214   -7.2991 C.3       1 <0>         0.1191
     21 H2          1.2272    1.6921   -7.1859 H         1 <0>         0.1047
     22 C16        -0.7322    0.9050   -7.5379 C.2       1 <0>         0.5087
     23 O3         -1.5358    0.4105   -6.7758 O.2       1 <0>        -0.5102
     24 N3         -1.1598    1.6186   -8.5982 N.am      1 <0>        -0.7222
     25 C17        -2.5952    1.7970   -8.8303 C.3       1 <0>         0.1916
     26 C18        -2.8393    2.0311  -10.3198 C.3       1 <0>        -0.1261
     27 C19        -4.3071    2.4301  -10.5125 C.3       1 <0>        -0.1165
     28 C20        -4.5060    3.8287   -9.9318 C.3       1 <0>        -0.0854
     29 C21        -3.9675    3.9001   -8.5268 C.ar      1 <0>        -0.0664
     30 C22        -3.0871    2.9693   -8.0223 C.ar      1 <0>        -0.1012
     31 C23        -2.6232    3.0969   -6.7196 C.ar      1 <0>        -0.1043
     32 C24        -3.0400    4.1461   -5.9264 C.ar      1 <0>        -0.1286
     33 C25        -3.9268    5.0782   -6.4316 C.ar      1 <0>        -0.1141
     34 C26        -4.3874    4.9543   -7.7263 C.ar      1 <0>        -0.1273
     35 N4          2.3883    0.0345    0.9077 N.4       1 <0>        -0.4939
     36 C27         2.2094    0.7430    2.1820 C.3       1 <0>        -0.0504
     37 H3          2.9152    2.0809   -0.7550 H         1 <0>         0.0903
     38 H4          1.2219    2.4795   -1.1322 H         1 <0>         0.1118
     39 H5          1.8229    2.6368    0.5358 H         1 <0>         0.0993
     40 H6          0.4625    0.5807    0.2701 H         1 <0>         0.1664
     41 H7          0.2420    0.9092   -2.3956 H         1 <0>         0.4189
     42 H8         -0.0191   -2.3659   -4.5466 H         1 <0>         0.0906
     43 H9         -1.4247   -0.8273   -2.3163 H         1 <0>         0.0551
     44 H10        -1.7707   -0.6806   -4.0562 H         1 <0>         0.0778
     45 H11        -3.3806   -2.2114   -2.9547 H         1 <0>         0.0650
     46 H12        -2.3772   -3.0835   -4.1382 H         1 <0>         0.0644
     47 H13        -1.8888   -2.9751   -1.1271 H         1 <0>         0.0553
     48 H14        -2.5653   -4.3584   -2.0198 H         1 <0>         0.0647
     49 H15        -0.1372   -4.6604   -1.6175 H         1 <0>         0.0639
     50 H16        -0.4832   -4.5136   -3.3574 H         1 <0>         0.0652
     51 H17         1.4727   -3.1296   -2.7191 H         1 <0>         0.0696
     52 H18         0.4693   -2.2575   -1.5355 H         1 <0>         0.0550
     53 H19         2.7748   -1.1539   -6.3017 H         1 <0>         0.0799
     54 H20         1.3518   -2.1572   -5.8853 H         1 <0>         0.0832
     55 H21         2.2071   -2.0726   -8.4499 H         1 <0>         0.0965
     56 H22         0.4451   -1.9924   -8.1135 H         1 <0>         0.0821
     57 H23         2.3879    0.3177   -8.6800 H         1 <0>         0.0946
     58 H24         0.7550    0.0412   -9.3703 H         1 <0>         0.0924
     59 H25        -0.5171    2.0141   -9.2077 H         1 <0>         0.4013
     60 H26        -3.1245    0.8971   -8.5170 H         1 <0>         0.0977
     61 H27        -2.1913    2.8316  -10.6766 H         1 <0>         0.0734
     62 H28        -2.6319    1.1157  -10.8740 H         1 <0>         0.0761
     63 H29        -4.5495    2.4359  -11.5752 H         1 <0>         0.0774
     64 H30        -4.9516    1.7215   -9.9923 H         1 <0>         0.0695
     65 H31        -3.9828    4.5543  -10.5546 H         1 <0>         0.0788
     66 H32        -5.5699    4.0656   -9.9214 H         1 <0>         0.0784
     67 H33        -1.9308    2.3686   -6.3239 H         1 <0>         0.1370
     68 H34        -2.6749    4.2385   -4.9142 H         1 <0>         0.1158
     69 H35        -4.2584    5.9005   -5.8148 H         1 <0>         0.1203
     70 H36        -5.0800    5.6832   -8.1204 H         1 <0>         0.1216
     71 H37         2.1747   -0.9435    1.0337 H         1 <0>         0.4374
     72 H38         1.1769    0.6367    2.5150 H         1 <0>         0.1265
     73 H39         2.8782    0.3186    2.9308 H         1 <0>         0.1335
     74 H40         2.4402    1.7996    2.0458 H         1 <0>         0.1274
     75 H41         3.3440    0.1330    0.5994 H         1 <0>         0.4347
@<TRIPOS>BOND
     1    1    2 1
     2    1   37 1
     3    1   38 1
     4    1   39 1
     5    2    3 1
     6    2   35 1
     7    2   40 1
     8    3    4 2
     9    3    5 am
    10    5    6 1
    11    5   41 1
    12    6    7 1
    13    6    8 1
    14    6   14 1
    15    8   13 1
    16    8    9 1
    17    8   42 1
    18    9   10 1
    19    9   43 1
    20    9   44 1
    21   10   11 1
    22   10   45 1
    23   10   46 1
    24   11   12 1
    25   11   47 1
    26   11   48 1
    27   12   13 1
    28   12   49 1
    29   12   50 1
    30   13   51 1
    31   13   52 1
    32   14   15 2
    33   14   16 am
    34   16   20 1
    35   16   17 1
    36   17   18 1
    37   17   53 1
    38   17   54 1
    39   18   19 1
    40   18   55 1
    41   18   56 1
    42   19   20 1
    43   19   57 1
    44   19   58 1
    45   20   21 1
    46   20   22 1
    47   22   23 2
    48   22   24 am
    49   24   25 1
    50   24   59 1
    51   25   30 1
    52   25   26 1
    53   25   60 1
    54   26   27 1
    55   26   61 1
    56   26   62 1
    57   27   28 1
    58   27   63 1
    59   27   64 1
    60   28   29 1
    61   28   65 1
    62   28   66 1
    63   29   34 ar
    64   29   30 ar
    65   30   31 ar
    66   31   32 ar
    67   31   67 1
    68   32   33 ar
    69   32   68 1
    70   33   34 ar
    71   33   69 1
    72   34   70 1
    73   35   36 1
    74   35   71 1
    75   35   75 1
    76   36   72 1
    77   36   73 1
    78   36   74 1
@<TRIPOS>MOLECULE
CHEMBL363529__3
   75    78     0     0     0
SMALL
USER_CHARGES

@<TRIPOS>ATOM
      1 C1          2.9655    1.4555   -0.4487 C.3       1 <0>        -0.1826
      2 C2          2.1983    0.1652   -0.1530 C.3       1 <0>         0.0048
      3 C3          1.9227   -0.5623   -1.4437 C.2       1 <0>         0.5055
      4 O1          2.3533   -1.6836   -1.6116 O.2       1 <0>        -0.5190
      5 N1          1.1977    0.0331   -2.4114 N.am      1 <0>        -0.6857
      6 C4          0.9298   -0.6742   -3.6661 C.3       1 <0>         0.1366
      7 H1          1.7908   -1.2894   -3.9273 H         1 <0>         0.1141
      8 C5         -0.3016   -1.5661   -3.4958 C.3       1 <0>        -0.0884
      9 C6         -0.6392   -2.2299   -4.8323 C.3       1 <0>        -0.1219
     10 C7         -1.8706   -3.1219   -4.6621 C.3       1 <0>        -0.1156
     11 C8         -1.5788   -4.2000   -3.6165 C.3       1 <0>        -0.1222
     12 C9         -1.2412   -3.5362   -2.2800 C.3       1 <0>        -0.1216
     13 C10        -0.0098   -2.6442   -2.4502 C.3       1 <0>        -0.0992
     14 C11         0.6768    0.3275   -4.7632 C.2       1 <0>         0.5365
     15 O2          0.0101    1.3158   -4.5401 O.2       1 <0>        -0.5105
     16 N2          1.1913    0.1251   -5.9923 N.am      1 <0>        -0.5946
     17 C12         1.9292   -1.0745   -6.4280 C.3       1 <0>         0.0864
     18 C13         1.7528   -1.1116   -7.9666 C.3       1 <0>        -0.1330
     19 C14         1.8106    0.3974   -8.3231 C.3       1 <0>        -0.1272
     20 C15         1.1042    1.0614   -7.1225 C.3       1 <0>         0.1188
     21 H2          1.6062    1.9953   -6.8697 H         1 <0>         0.1046
     22 C16        -0.3408    1.3273   -7.4576 C.2       1 <0>         0.5083
     23 O3         -1.2203    0.7900   -6.8183 O.2       1 <0>        -0.5090
     24 N3         -0.6557    2.1621   -8.4677 N.am      1 <0>        -0.7218
     25 C17        -2.0604    2.4206   -8.7935 C.3       1 <0>         0.1911
     26 C18        -2.1799    3.7921   -9.4549 C.3       1 <0>        -0.1258
     27 C19        -3.6106    3.9515   -9.9826 C.3       1 <0>        -0.1165
     28 C20        -3.7944    3.0069  -11.1687 C.3       1 <0>        -0.0853
     29 C21        -3.3623    1.6104  -10.8053 C.ar      1 <0>        -0.0664
     30 C22        -2.5629    1.3416   -9.7167 C.ar      1 <0>        -0.0975
     31 C23        -2.1950    0.0313   -9.4407 C.ar      1 <0>        -0.1067
     32 C24        -2.6267   -1.0027  -10.2458 C.ar      1 <0>        -0.1286
     33 C25        -3.4323   -0.7333  -11.3361 C.ar      1 <0>        -0.1122
     34 C26        -3.7973    0.5681  -11.6132 C.ar      1 <0>        -0.1244
     35 N4          3.0019   -0.6909    0.7297 N.4       1 <0>        -0.4940
     36 C27         3.1695   -0.0315    2.0316 C.3       1 <0>        -0.0503
     37 H3          3.9090    1.2133   -0.9379 H         1 <0>         0.0905
     38 H4          2.3693    2.0908   -1.1037 H         1 <0>         0.1110
     39 H5          3.1648    1.9817    0.4848 H         1 <0>         0.0998
     40 H6          1.2548    0.4074    0.3361 H         1 <0>         0.1674
     41 H7          0.8534    0.9299   -2.2771 H         1 <0>         0.4173
     42 H8         -1.1462   -0.9605   -3.1673 H         1 <0>         0.0847
     43 H9         -0.8471   -1.4619   -5.5773 H         1 <0>         0.0805
     44 H10         0.2055   -2.8355   -5.1608 H         1 <0>         0.0647
     45 H11        -2.7152   -2.5163   -4.3336 H         1 <0>         0.0637
     46 H12        -2.1111   -3.5948   -5.6143 H         1 <0>         0.0672
     47 H13        -2.4560   -4.8355   -3.4952 H         1 <0>         0.0651
     48 H14        -0.7341   -4.8056   -3.9450 H         1 <0>         0.0630
     49 H15        -2.0858   -2.9306   -1.9515 H         1 <0>         0.0608
     50 H16        -1.0333   -4.3043   -1.5350 H         1 <0>         0.0634
     51 H17         0.8349   -3.2498   -2.7787 H         1 <0>         0.0718
     52 H18         0.2307   -2.1713   -1.4980 H         1 <0>         0.0502
     53 H19         2.9843   -0.9858   -6.1691 H         1 <0>         0.0780
     54 H20         1.5006   -1.9687   -5.9754 H         1 <0>         0.0874
     55 H21         2.5692   -1.6565   -8.4404 H         1 <0>         0.0964
     56 H22         0.7886   -1.5408   -8.2391 H         1 <0>         0.0821
     57 H23         2.8437    0.7356   -8.4027 H         1 <0>         0.0945
     58 H24         1.2662    0.5966   -9.2462 H         1 <0>         0.0925
     59 H25         0.0477    2.5918   -8.9790 H         1 <0>         0.4011
     60 H26        -2.6495    2.4119   -7.8764 H         1 <0>         0.0982
     61 H27        -1.9695    4.5721   -8.7232 H         1 <0>         0.0754
     62 H28        -1.4735    3.8636  -10.2819 H         1 <0>         0.0734
     63 H29        -4.3222    3.6972   -9.1970 H         1 <0>         0.0695
     64 H30        -3.7707    4.9806  -10.3045 H         1 <0>         0.0772
     65 H31        -4.8450    2.9941  -11.4586 H         1 <0>         0.0787
     66 H32        -3.1950    3.3619  -12.0071 H         1 <0>         0.0791
     67 H33        -1.5654   -0.1801   -8.5890 H         1 <0>         0.1260
     68 H34        -2.3358   -2.0191  -10.0250 H         1 <0>         0.1181
     69 H35        -3.7746   -1.5386  -11.9691 H         1 <0>         0.1222
     70 H36        -4.4266    0.7779  -12.4655 H         1 <0>         0.1224
     71 H37         2.5332   -1.5752    0.8584 H         1 <0>         0.4378
     72 H38         2.1913    0.1379    2.4817 H         1 <0>         0.1267
     73 H39         3.7657   -0.6667    2.6866 H         1 <0>         0.1336
     74 H40         3.6758    0.9238    1.8925 H         1 <0>         0.1274
     75 H41         3.9074   -0.8477    0.3131 H         1 <0>         0.4347
@<TRIPOS>BOND
     1    1    2 1
     2    1   37 1
     3    1   38 1
     4    1   39 1
     5    2    3 1
     6    2   35 1
     7    2   40 1
     8    3    4 2
     9    3    5 am
    10    5    6 1
    11    5   41 1
    12    6    7 1
    13    6    8 1
    14    6   14 1
    15    8   13 1
    16    8    9 1
    17    8   42 1
    18    9   10 1
    19    9   43 1
    20    9   44 1
    21   10   11 1
    22   10   45 1
    23   10   46 1
    24   11   12 1
    25   11   47 1
    26   11   48 1
    27   12   13 1
    28   12   49 1
    29   12   50 1
    30   13   51 1
    31   13   52 1
    32   14   15 2
    33   14   16 am
    34   16   20 1
    35   16   17 1
    36   17   18 1
    37   17   53 1
    38   17   54 1
    39   18   19 1
    40   18   55 1
    41   18   56 1
    42   19   20 1
    43   19   57 1
    44   19   58 1
    45   20   21 1
    46   20   22 1
    47   22   23 2
    48   22   24 am
    49   24   25 1
    50   24   59 1
    51   25   30 1
    52   25   26 1
    53   25   60 1
    54   26   27 1
    55   26   61 1
    56   26   62 1
    57   27   28 1
    58   27   63 1
    59   27   64 1
    60   28   29 1
    61   28   65 1
    62   28   66 1
    63   29   34 ar
    64   29   30 ar
    65   30   31 ar
    66   31   32 ar
    67   31   67 1
    68   32   33 ar
    69   32   68 1
    70   33   34 ar
    71   33   69 1
    72   34   70 1
    73   35   36 1
    74   35   71 1
    75   35   75 1
    76   36   72 1
    77   36   73 1
    78   36   74 1
@<TRIPOS>MOLECULE
CHEMBL462102
   71    74     0     0     0
SMALL
USER_CHARGES

@<TRIPOS>ATOM
      1 C1         -2.1157    2.9163   -0.8579 C.3       1 <0>        -0.1826
      2 C2         -1.3006    1.6220   -0.8923 C.3       1 <0>         0.0048
      3 H1         -0.4648    1.7004   -0.1971 H         1 <0>         0.1669
      4 C3         -2.1790    0.4643   -0.4931 C.2       1 <0>         0.5053
      5 O1         -2.3603   -0.4536   -1.2648 O.2       1 <0>        -0.5198
      6 N1         -2.7631    0.4491    0.7214 N.am      1 <0>        -0.6832
      7 C4         -3.6171   -0.6763    1.1094 C.3       1 <0>         0.1386
      8 H2         -4.1600   -1.0384    0.2363 H         1 <0>         0.1158
      9 C5         -4.5989   -0.2233    2.1591 C.2       1 <0>         0.5282
     10 O2         -4.2601    0.5846    2.9978 O.2       1 <0>        -0.5164
     11 N2         -5.8533   -0.7160    2.1659 N.am      1 <0>        -0.6018
     12 C6         -6.3649   -1.7734    1.2759 C.3       1 <0>         0.0877
     13 C7         -7.8894   -1.5172    1.1948 C.3       1 <0>        -0.1295
     14 C8         -8.2157   -1.0543    2.6363 C.3       1 <0>        -0.0990
     15 H3         -9.1204   -0.4493    2.6966 H         1 <0>         0.1096
     16 C9         -6.9341   -0.2920    3.0659 C.3       1 <0>         0.1316
     17 H4         -7.0865    0.7859    3.0105 H         1 <0>         0.0917
     18 C10        -6.6120   -0.7483    4.4990 C.3       1 <0>         0.1422
     19 H5         -5.6354   -1.2317    4.5258 H         1 <0>         0.0965
     20 C11        -7.7096   -1.7536    4.9023 C.3       1 <0>        -0.1373
     21 C12        -8.2570   -2.2994    3.5531 C.3       1 <0>        -0.1196
     22 N3         -6.6266    0.4018    5.4064 N.am      1 <0>        -0.7169
     23 C13        -5.9132    0.3674    6.5494 C.2       1 <0>         0.5711
     24 O3         -5.2577   -0.6180    6.8274 O.2       1 <0>        -0.5336
     25 C14        -5.9279    1.5269    7.4642 C.ar      1 <0>        -0.1568
     26 C15        -6.6878    2.6605    7.1471 C.ar      1 <0>        -0.0647
     27 C16        -6.7112    3.7390    7.9823 C.ar      1 <0>        -0.1089
     28 C17        -5.9779    3.7266    9.1650 C.ar      1 <0>         0.0746
     29 C18        -5.2115    2.5936    9.4939 C.ar      1 <0>        -0.1411
     30 C19        -5.1912    1.4920    8.6452 C.ar      1 <0>        -0.0007
     31 C20        -4.5771    2.9092   10.7802 C.2       1 <0>        -0.2038
     32 C21        -4.9895    4.1412   11.1067 C.2       1 <0>         0.0126
     33 O4         -5.8123    4.6219   10.1583 O.3       1 <0>        -0.1906
     34 C22        -2.7501   -1.8033    1.6743 C.3       1 <0>        -0.0696
     35 C23        -1.8969   -1.2631    2.8237 C.3       1 <0>        -0.1471
     36 C24        -3.6492   -2.9281    2.1915 C.3       1 <0>        -0.1544
     37 C25        -1.8373   -2.3457    0.5727 C.3       1 <0>        -0.1310
     38 N4         -0.7881    1.4020   -2.2513 N.4       1 <0>        -0.4940
     39 C26         0.1616    2.4687   -2.5951 C.3       1 <0>        -0.0504
     40 H6         -1.4804    3.7536   -1.1466 H         1 <0>         0.1000
     41 H7         -2.9516    2.8378   -1.5531 H         1 <0>         0.0904
     42 H8         -2.4960    3.0795    0.1505 H         1 <0>         0.1110
     43 H9         -2.6181    1.1832    1.3385 H         1 <0>         0.4180
     44 H10        -5.9127   -1.6894    0.2877 H         1 <0>         0.0801
     45 H11        -6.1674   -2.7569    1.7023 H         1 <0>         0.0840
     46 H12        -8.1143   -0.7316    0.4734 H         1 <0>         0.0789
     47 H13        -8.4256   -2.4340    0.9496 H         1 <0>         0.0945
     48 H14        -7.2874   -2.5583    5.5043 H         1 <0>         0.0780
     49 H15        -8.5086   -1.2487    5.4452 H         1 <0>         0.0760
     50 H16        -9.2773   -2.6688    3.6561 H         1 <0>         0.0816
     51 H17        -7.5995   -3.0808    3.1721 H         1 <0>         0.0731
     52 H18        -7.1496    1.1880    5.1845 H         1 <0>         0.3983
     53 H19        -7.2607    2.6809    6.2319 H         1 <0>         0.1348
     54 H20        -7.3010    4.6062    7.7244 H         1 <0>         0.1396
     55 H21        -4.6066    0.6197    8.8976 H         1 <0>         0.1423
     56 H22        -3.9122    2.2757   11.3484 H         1 <0>         0.1638
     57 H23        -4.7026    4.6716   12.0026 H         1 <0>         0.2136
     58 H24        -2.5472   -0.8767    3.6085 H         1 <0>         0.0697
     59 H25        -1.2792   -2.0660    3.2262 H         1 <0>         0.0645
     60 H26        -1.2564   -0.4618    2.4553 H         1 <0>         0.0507
     61 H27        -4.3171   -3.2549    1.3945 H         1 <0>         0.0642
     62 H28        -3.0324   -3.7664    2.5153 H         1 <0>         0.0726
     63 H29        -4.2386   -2.5642    3.0331 H         1 <0>         0.0616
     64 H30        -1.1968   -1.5444    0.2043 H         1 <0>         0.0466
     65 H31        -1.2197   -3.1486    0.9752 H         1 <0>         0.0618
     66 H32        -2.4452   -2.7305   -0.2461 H         1 <0>         0.0653
     67 H33        -0.3207    0.5088   -2.2940 H         1 <0>         0.4377
     68 H34         0.5418    2.3054   -3.6035 H         1 <0>         0.1338
     69 H35        -0.3434    3.4335   -2.5490 H         1 <0>         0.1274
     70 H36         0.9910    2.4585   -1.8880 H         1 <0>         0.1268
     71 H37        -1.5559    1.4114   -2.9059 H         1 <0>         0.4347
@<TRIPOS>BOND
     1    1    2 1
     2    1   40 1
     3    1   41 1
     4    1   42 1
     5    2    3 1
     6    2    4 1
     7    2   38 1
     8    4    5 2
     9    4    6 am
    10    6    7 1
    11    6   43 1
    12    7    8 1
    13    7    9 1
    14    7   34 1
    15    9   10 2
    16    9   11 am
    17   11   16 1
    18   11   12 1
    19   12   13 1
    20   12   44 1
    21   12   45 1
    22   13   14 1
    23   13   46 1
    24   13   47 1
    25   14   15 1
    26   14   21 1
    27   14   16 1
    28   16   17 1
    29   16   18 1
    30   18   19 1
    31   18   20 1
    32   18   22 1
    33   20   21 1
    34   20   48 1
    35   20   49 1
    36   21   50 1
    37   21   51 1
    38   22   23 am
    39   22   52 1
    40   23   24 2
    41   23   25 1
    42   25   30 ar
    43   25   26 ar
    44   26   27 ar
    45   26   53 1
    46   27   28 ar
    47   27   54 1
    48   28   33 1
    49   28   29 ar
    50   29   30 ar
    51   29   31 1
    52   30   55 1
    53   31   32 2
    54   31   56 1
    55   32   33 1
    56   32   57 1
    57   34   35 1
    58   34   36 1
    59   34   37 1
    60   35   58 1
    61   35   59 1
    62   35   60 1
    63   36   61 1
    64   36   62 1
    65   36   63 1
    66   37   64 1
    67   37   65 1
    68   37   66 1
    69   38   39 1
    70   38   67 1
    71   38   71 1
    72   39   68 1
    73   39   69 1
    74   39   70 1
@<TRIPOS>MOLECULE
CHEMBL511444
   74    77     0     0     0
SMALL
USER_CHARGES

@<TRIPOS>ATOM
      1 C1         -0.3437    2.4177    1.9853 C.3       1 <0>        -0.1825
      2 C2         -0.4684    1.0390    1.3336 C.3       1 <0>         0.0048
      3 H1         -0.2059    1.1110    0.2781 H         1 <0>         0.1670
      4 C3          0.4642    0.0735    2.0185 C.2       1 <0>         0.5053
      5 O1          0.0208   -0.9166    2.5608 O.2       1 <0>        -0.5199
      6 N1          1.7910    0.3102    2.0283 N.am      1 <0>        -0.6831
      7 C4          2.6976   -0.6285    2.6941 C.3       1 <0>         0.1387
      8 H2          2.2088   -1.0420    3.5762 H         1 <0>         0.1161
      9 C5          3.9535    0.0942    3.1080 C.2       1 <0>         0.5285
     10 O2          4.3946    0.9880    2.4170 O.2       1 <0>        -0.5169
     11 N2          4.5866   -0.2527    4.2461 N.am      1 <0>        -0.6021
     12 C6          4.2233   -1.3822    5.1202 C.3       1 <0>         0.0874
     13 C7          4.7455   -0.9807    6.5211 C.3       1 <0>        -0.1296
     14 C8          6.0678   -0.2521    6.1756 C.3       1 <0>        -0.0990
     15 H3          6.3847    0.4482    6.9484 H         1 <0>         0.1094
     16 C9          5.7564    0.4289    4.8163 C.3       1 <0>         0.1315
     17 H4          5.5600    1.4925    4.9509 H         1 <0>         0.0913
     18 C10         6.9777    0.1854    3.9137 C.3       1 <0>         0.1419
     19 H5          6.6837   -0.3890    3.0353 H         1 <0>         0.0972
     20 C11         7.9961   -0.6149    4.7507 C.3       1 <0>        -0.1372
     21 C12         7.1411   -1.3155    5.8444 C.3       1 <0>        -0.1195
     22 N3          7.5606    1.4652    3.5032 N.am      1 <0>        -0.7154
     23 C13         8.2771    1.5450    2.3645 C.2       1 <0>         0.5707
     24 O3          8.4397    0.5547    1.6778 O.2       1 <0>        -0.5286
     25 C14         8.8638    2.8332    1.9513 C.ar      1 <0>        -0.1279
     26 C15         8.5802    3.9923    2.6586 C.ar      1 <0>        -0.0712
     27 C16         9.1298    5.2087    2.2744 C.ar      1 <0>        -0.1337
     28 C17         9.9596    5.2992    1.1970 C.ar      1 <0>        -0.0698
     29 C18        10.2746    4.1505    0.4508 C.ar      1 <0>        -0.0610
     30 C19         9.7288    2.9002    0.8304 C.ar      1 <0>        -0.0124
     31 C20        10.0476    1.7548    0.0886 C.ar      1 <0>        -0.1179
     32 C21        10.8823    1.8558   -0.9836 C.ar      1 <0>        -0.1128
     33 C22        11.4253    3.0837   -1.3551 C.ar      1 <0>        -0.1117
     34 C23        11.1272    4.2187   -0.6649 C.ar      1 <0>        -0.1098
     35 C24         3.0554   -1.7620    1.7308 C.3       1 <0>        -0.0697
     36 C25         3.6183   -1.1725    0.4360 C.3       1 <0>        -0.1467
     37 C26         4.1051   -2.6683    2.3772 C.3       1 <0>        -0.1558
     38 C27         1.8006   -2.5789    1.4160 C.3       1 <0>        -0.1311
     39 N4         -1.8509    0.5596    1.4628 N.4       1 <0>        -0.4939
     40 C28        -2.7465    1.4349    0.6949 C.3       1 <0>        -0.0504
     41 H6          0.6821    2.7734    1.8895 H         1 <0>         0.1110
     42 H7         -1.0183    3.1161    1.4900 H         1 <0>         0.1000
     43 H8         -0.6062    2.3457    3.0408 H         1 <0>         0.0904
     44 H9          2.1456    1.1020    1.5946 H         1 <0>         0.4181
     45 H10         3.1413   -1.5129    5.1416 H         1 <0>         0.0803
     46 H11         4.7103   -2.2965    4.7812 H         1 <0>         0.0845
     47 H12         4.0480   -0.3066    7.0181 H         1 <0>         0.0789
     48 H13         4.9355   -1.8625    7.1331 H         1 <0>         0.0946
     49 H14         8.5083   -1.3489    4.1286 H         1 <0>         0.0783
     50 H15         8.7149    0.0562    5.2208 H         1 <0>         0.0758
     51 H16         7.7361   -1.5508    6.7269 H         1 <0>         0.0817
     52 H17         6.6797   -2.2155    5.4379 H         1 <0>         0.0733
     53 H18         7.4310    2.2551    4.0510 H         1 <0>         0.3985
     54 H19         7.9253    3.9485    3.5163 H         1 <0>         0.1237
     55 H20         8.8952    6.0988    2.8393 H         1 <0>         0.1310
     56 H21        10.3755    6.2554    0.9158 H         1 <0>         0.1332
     57 H22         9.6340    0.7964    0.3657 H         1 <0>         0.1672
     58 H23        11.1267    0.9714   -1.5533 H         1 <0>         0.1250
     59 H24        12.0846    3.1376   -2.2088 H         1 <0>         0.1256
     60 H25        11.5546    5.1642   -0.9644 H         1 <0>         0.1302
     61 H26         4.5122   -0.5905    0.6603 H         1 <0>         0.0688
     62 H27         3.8732   -1.9801   -0.2502 H         1 <0>         0.0649
     63 H28         2.8705   -0.5269   -0.0245 H         1 <0>         0.0508
     64 H29         3.6772   -3.1504    3.2562 H         1 <0>         0.0650
     65 H30         4.4184   -3.4289    1.6620 H         1 <0>         0.0725
     66 H31         4.9675   -2.0713    2.6738 H         1 <0>         0.0624
     67 H32         1.0528   -1.9333    0.9555 H         1 <0>         0.0471
     68 H33         2.0556   -3.3865    0.7297 H         1 <0>         0.0618
     69 H34         1.3996   -2.9990    2.3384 H         1 <0>         0.0651
     70 H35        -1.9148   -0.3824    1.1070 H         1 <0>         0.4376
     71 H36        -2.6775    2.4525    1.0792 H         1 <0>         0.1274
     72 H37        -2.4543    1.4225   -0.3552 H         1 <0>         0.1268
     73 H38        -3.7724    1.0791    0.7907 H         1 <0>         0.1338
     74 H39        -2.1215    0.5711    2.4348 H         1 <0>         0.4347
@<TRIPOS>BOND
     1    1    2 1
     2    1   41 1
     3    1   42 1
     4    1   43 1
     5    2    3 1
     6    2    4 1
     7    2   39 1
     8    4    5 2
     9    4    6 am
    10    6    7 1
    11    6   44 1
    12    7    8 1
    13    7    9 1
    14    7   35 1
    15    9   10 2
    16    9   11 am
    17   11   16 1
    18   11   12 1
    19   12   13 1
    20   12   45 1
    21   12   46 1
    22   13   14 1
    23   13   47 1
    24   13   48 1
    25   14   15 1
    26   14   21 1
    27   14   16 1
    28   16   17 1
    29   16   18 1
    30   18   19 1
    31   18   20 1
    32   18   22 1
    33   20   21 1
    34   20   49 1
    35   20   50 1
    36   21   51 1
    37   21   52 1
    38   22   23 am
    39   22   53 1
    40   23   24 2
    41   23   25 1
    42   25   30 ar
    43   25   26 ar
    44   26   27 ar
    45   26   54 1
    46   27   28 ar
    47   27   55 1
    48   28   29 ar
    49   28   56 1
    50   29   34 ar
    51   29   30 ar
    52   30   31 ar
    53   31   32 ar
    54   31   57 1
    55   32   33 ar
    56   32   58 1
    57   33   34 ar
    58   33   59 1
    59   34   60 1
    60   35   36 1
    61   35   37 1
    62   35   38 1
    63   36   61 1
    64   36   62 1
    65   36   63 1
    66   37   64 1
    67   37   65 1
    68   37   66 1
    69   38   67 1
    70   38   68 1
    71   38   69 1
    72   39   40 1
    73   39   70 1
    74   39   74 1
    75   40   71 1
    76   40   72 1
    77   40   73 1
@<TRIPOS>MOLECULE
CHEMBL479725
   81    84     0     0     0
SMALL
USER_CHARGES

@<TRIPOS>ATOM
      1 C1         -1.5058    3.7695   -1.2857 C.3       1 <0>        -0.1825
      2 C2         -1.7292    2.2577   -1.3602 C.3       1 <0>         0.0048
      3 H1         -1.1505    1.8452   -2.1866 H         1 <0>         0.1670
      4 C3         -1.2857    1.6202   -0.0687 C.2       1 <0>         0.5054
      5 O1         -2.0800    0.9987    0.6049 O.2       1 <0>        -0.5200
      6 N1         -0.0063    1.7406    0.3377 N.am      1 <0>        -0.6832
      7 C4          0.4249    1.1208    1.5931 C.3       1 <0>         0.1387
      8 H2         -0.3868    1.1679    2.3191 H         1 <0>         0.1157
      9 C5          1.6238    1.8582    2.1315 C.2       1 <0>         0.5289
     10 O2          2.4418    2.3253    1.3676 O.2       1 <0>        -0.5179
     11 N2          1.7870    1.9986    3.4620 N.am      1 <0>        -0.6014
     12 C6          0.9257    1.4045    4.4997 C.3       1 <0>         0.0875
     13 C7          1.0816    2.3387    5.7242 C.3       1 <0>        -0.1297
     14 C8          2.5781    2.7296    5.6429 C.3       1 <0>        -0.0987
     15 H3          2.8021    3.6705    6.1454 H         1 <0>         0.1089
     16 C9          2.8565    2.7639    4.1166 C.3       1 <0>         0.1320
     17 H4          2.8818    3.7899    3.7496 H         1 <0>         0.0912
     18 C10         4.2007    2.0485    3.8998 C.3       1 <0>         0.1431
     19 H5          4.0587    1.1716    3.2682 H         1 <0>         0.0949
     20 C11         4.7052    1.6194    5.2925 C.3       1 <0>        -0.1364
     21 C12         3.4229    1.5455    6.1690 C.3       1 <0>        -0.1194
     22 N3          5.1609    2.9636    3.2780 N.am      1 <0>        -0.7161
     23 C13         6.1841    2.4741    2.5501 C.2       1 <0>         0.5309
     24 O3          6.3100    1.2760    2.4099 O.2       1 <0>        -0.5226
     25 C14         7.1719    3.4155    1.9104 C.3       1 <0>        -0.0234
     26 C15         7.8455    4.2384    2.9781 C.ar      1 <0>        -0.0805
     27 C16         8.4294    3.6155    4.0653 C.ar      1 <0>        -0.1076
     28 C17         9.0474    4.3703    5.0447 C.ar      1 <0>        -0.1139
     29 C18         9.0818    5.7480    4.9367 C.ar      1 <0>        -0.1140
     30 C19         8.4988    6.3708    3.8491 C.ar      1 <0>        -0.1156
     31 C20         7.8846    5.6157    2.8675 C.ar      1 <0>        -0.1100
     32 C21         8.2090    2.6210    1.1593 C.ar      1 <0>        -0.0697
     33 C22         8.9124    1.6199    1.8028 C.ar      1 <0>        -0.0795
     34 C23         9.8638    0.8911    1.1138 C.ar      1 <0>        -0.1222
     35 C24        10.1115    1.1631   -0.2187 C.ar      1 <0>        -0.1146
     36 C25         9.4075    2.1636   -0.8624 C.ar      1 <0>        -0.1231
     37 C26         8.4531    2.8895   -0.1746 C.ar      1 <0>        -0.1101
     38 C27         0.7973   -0.3412    1.3386 C.3       1 <0>        -0.0694
     39 C28         1.8783   -0.4114    0.2582 C.3       1 <0>        -0.1467
     40 C29         1.3270   -0.9650    2.6313 C.3       1 <0>        -0.1547
     41 C30        -0.4409   -1.1091    0.8718 C.3       1 <0>        -0.1308
     42 N4         -3.1561    1.9836   -1.5768 N.4       1 <0>        -0.4940
     43 C31        -3.5602    2.5014   -2.8908 C.3       1 <0>        -0.0504
     44 H6         -0.4471    3.9728   -1.1250 H         1 <0>         0.1110
     45 H7         -1.8267    4.2306   -2.2198 H         1 <0>         0.1000
     46 H8         -2.0846    4.1820   -0.4593 H         1 <0>         0.0904
     47 H9          0.6290    2.2377   -0.2011 H         1 <0>         0.4180
     48 H10        -0.1119    1.3853    4.1665 H         1 <0>         0.0799
     49 H11         1.2653    0.3980    4.7444 H         1 <0>         0.0840
     50 H12         0.4440    3.2173    5.6271 H         1 <0>         0.0787
     51 H13         0.8684    1.8052    6.6505 H         1 <0>         0.0942
     52 H14         5.1951    0.6472    5.2379 H         1 <0>         0.0763
     53 H15         5.3851    2.3680    5.6992 H         1 <0>         0.0758
     54 H16         3.6536    1.6761    7.2263 H         1 <0>         0.0808
     55 H17         2.9087    0.5995    5.9993 H         1 <0>         0.0725
     56 H18         5.0602    3.9218    3.3901 H         1 <0>         0.3995
     57 H19         6.6489    4.0758    1.2186 H         1 <0>         0.1086
     58 H20         8.4025    2.5391    4.1497 H         1 <0>         0.1207
     59 H21         9.5029    3.8836    5.8945 H         1 <0>         0.1243
     60 H22         9.5640    6.3377    5.7023 H         1 <0>         0.1244
     61 H23         8.5254    7.4472    3.7649 H         1 <0>         0.1252
     62 H24         7.4323    6.1021    2.0159 H         1 <0>         0.1231
     63 H25         8.7189    1.4074    2.8438 H         1 <0>         0.1193
     64 H26        10.4138    0.1095    1.6167 H         1 <0>         0.1221
     65 H27        10.8553    0.5942   -0.7568 H         1 <0>         0.1222
     66 H28         9.6012    2.3763   -1.9034 H         1 <0>         0.1225
     67 H29         7.9004    3.6686   -0.6785 H         1 <0>         0.1189
     68 H30         2.7605    0.1357    0.5907 H         1 <0>         0.0688
     69 H31         2.1437   -1.4529    0.0768 H         1 <0>         0.0645
     70 H32         1.5010    0.0331   -0.6628 H         1 <0>         0.0511
     71 H33         0.5616   -0.9031    3.4049 H         1 <0>         0.0645
     72 H34         1.5800   -2.0102    2.4533 H         1 <0>         0.0723
     73 H35         2.2169   -0.4262    2.9568 H         1 <0>         0.0619
     74 H36        -0.8183   -0.6646   -0.0492 H         1 <0>         0.0456
     75 H37        -0.1756   -2.1506    0.6905 H         1 <0>         0.0619
     76 H38        -1.2111   -1.0590    1.6415 H         1 <0>         0.0660
     77 H39        -3.3161    0.9880   -1.5439 H         1 <0>         0.4376
     78 H40        -3.3873    3.5770   -2.9263 H         1 <0>         0.1275
     79 H41        -2.9741    2.0133   -3.6695 H         1 <0>         0.1268
     80 H42        -4.6189    2.2980   -3.0515 H         1 <0>         0.1338
     81 H43        -3.6986    2.4355   -0.8559 H         1 <0>         0.4347
@<TRIPOS>BOND
     1    1    2 1
     2    1   44 1
     3    1   45 1
     4    1   46 1
     5    2    3 1
     6    2    4 1
     7    2   42 1
     8    4    5 2
     9    4    6 am
    10    6    7 1
    11    6   47 1
    12    7    8 1
    13    7    9 1
    14    7   38 1
    15    9   10 2
    16    9   11 am
    17   11   16 1
    18   11   12 1
    19   12   13 1
    20   12   48 1
    21   12   49 1
    22   13   14 1
    23   13   50 1
    24   13   51 1
    25   14   15 1
    26   14   21 1
    27   14   16 1
    28   16   17 1
    29   16   18 1
    30   18   19 1
    31   18   20 1
    32   18   22 1
    33   20   21 1
    34   20   52 1
    35   20   53 1
    36   21   54 1
    37   21   55 1
    38   22   23 am
    39   22   56 1
    40   23   24 2
    41   23   25 1
    42   25   26 1
    43   25   32 1
    44   25   57 1
    45   26   31 ar
    46   26   27 ar
    47   27   28 ar
    48   27   58 1
    49   28   29 ar
    50   28   59 1
    51   29   30 ar
    52   29   60 1
    53   30   31 ar
    54   30   61 1
    55   31   62 1
    56   32   37 ar
    57   32   33 ar
    58   33   34 ar
    59   33   63 1
    60   34   35 ar
    61   34   64 1
    62   35   36 ar
    63   35   65 1
    64   36   37 ar
    65   36   66 1
    66   37   67 1
    67   38   39 1
    68   38   40 1
    69   38   41 1
    70   39   68 1
    71   39   69 1
    72   39   70 1
    73   40   71 1
    74   40   72 1
    75   40   73 1
    76   41   74 1
    77   41   75 1
    78   41   76 1
    79   42   43 1
    80   42   77 1
    81   42   81 1
    82   43   78 1
    83   43   79 1
    84   43   80 1
