@<TRIPOS>MOLECULE
ZINC00139803
   36    37     0     0     0
SMALL
USER_CHARGES
5-(4-chlorobenzoyl)amino-2-dimethylamino-benzoic acid
@<TRIPOS>ATOM
      1 C1          5.3034    4.2728    1.4822 C.3       1 <0>         0.0382
      2 N1          4.4590    4.6460    0.3395 N.pl3     1 <0>        -0.4762
      3 C2          5.2257    4.6173   -0.9132 C.3       1 <0>         0.0399
      4 C3          3.3401    3.8250    0.2578 C.ar      1 <0>         0.1084
      5 C4          3.4924    2.4533    0.0970 C.ar      1 <0>        -0.1520
      6 C5          2.3832    1.6376    0.0207 C.ar      1 <0>        -0.1102
      7 C6          1.1038    2.1810    0.0931 C.ar      1 <0>         0.1129
      8 C7          0.9347    3.5445    0.2531 C.ar      1 <0>        -0.0934
      9 C8          2.0529    4.3791    0.3369 C.ar      1 <0>        -0.0736
     10 C9          1.8814    5.8322    0.5068 C.2       1 <0>         0.4874
     11 O1          2.8559    6.5547    0.5792 O.co2     1 <0>        -0.5892
     12 N2         -0.0162    1.3436    0.0094 N.am      1 <0>        -0.6599
     13 C10         0.0233    0.2407   -0.7643 C.2       1 <0>         0.5547
     14 O2          0.9937    0.0231   -1.4636 O.2       1 <0>        -0.5174
     15 C11        -1.1128   -0.7040   -0.7625 C.ar      1 <0>        -0.1254
     16 C12        -2.2262   -0.4599    0.0440 C.ar      1 <0>        -0.0728
     17 C13        -3.2863   -1.3417    0.0363 C.ar      1 <0>        -0.1162
     18 C14        -3.2426   -2.4746   -0.7596 C.ar      1 <0>        -0.0132
     19 C15        -2.1382   -2.7254   -1.5571 C.ar      1 <0>        -0.1184
     20 C16        -1.0749   -1.8475   -1.5629 C.ar      1 <0>        -0.0462
     21 Cl1        -4.5776   -3.5842   -0.7580 Cl        1 <0>        -0.0647
     22 H1          5.6348    3.2408    1.3674 H         1 <0>         0.0173
     23 H2          6.1715    4.9308    1.5227 H         1 <0>         0.0667
     24 H3          4.7305    4.3700    2.4044 H         1 <0>         0.0652
     25 H4          4.5963    4.9648   -1.7324 H         1 <0>         0.0658
     26 H5          6.0954    5.2679   -0.8219 H         1 <0>         0.0667
     27 H6          5.5543    3.5977   -1.1148 H         1 <0>         0.0172
     28 H7          4.4817    2.0245    0.0359 H         1 <0>         0.1169
     29 H8          2.5079    0.5716   -0.0998 H         1 <0>         0.1260
     30 H9         -0.0589    3.9633    0.3134 H         1 <0>         0.1369
     31 H10        -0.8214    1.5596    0.5052 H         1 <0>         0.4082
     32 H11        -2.2591    0.4204    0.6689 H         1 <0>         0.1393
     33 H12        -4.1504   -1.1511    0.6555 H         1 <0>         0.1418
     34 H13        -2.1100   -3.6101   -2.1758 H         1 <0>         0.1412
     35 H14        -0.2146   -2.0437   -2.1857 H         1 <0>         0.1476
     36 O3          0.6438    6.3604    0.5818 O.co2     1 <0>        -0.7696
@<TRIPOS>BOND
     1    1    2 1
     2    1   22 1
     3    1   23 1
     4    1   24 1
     5    2    3 1
     6    2    4 1
     7    3   25 1
     8    3   26 1
     9    3   27 1
    10    4    9 ar
    11    4    5 ar
    12    5    6 ar
    13    5   28 1
    14    6    7 ar
    15    6   29 1
    16    7    8 ar
    17    7   12 1
    18    8    9 ar
    19    8   30 1
    20    9   10 1
    21   10   11 2
    22   10   36 1
    23   12   13 am
    24   12   31 1
    25   13   14 2
    26   13   15 1
    27   15   20 ar
    28   15   16 ar
    29   16   17 ar
    30   16   32 1
    31   17   18 ar
    32   17   33 1
    33   18   19 ar
    34   18   21 1
    35   19   20 ar
    36   19   34 1
    37   20   35 1
@<TRIPOS>MOLECULE
ZINC13404374
   43    45     0     0     0
SMALL
USER_CHARGES
(E)-3-[4-[(2-indan-5-ylsulfanylacetyl)amino]phenyl]prop-2-enoic acid
@<TRIPOS>ATOM
      1 C1         -5.4909   -6.0353   -0.3017 C.ar      1 <0>        -0.0966
      2 C2         -4.3858   -5.2217   -0.4040 C.ar      1 <0>        -0.1394
      3 C3         -4.4222   -3.9275    0.1065 C.ar      1 <0>         0.1226
      4 C4         -5.5733   -3.4520    0.7276 C.ar      1 <0>        -0.1132
      5 C5         -6.6848   -4.2569    0.8302 C.ar      1 <0>        -0.0992
      6 C6         -6.6529   -5.5594    0.3177 C.ar      1 <0>        -0.0440
      7 C7         -7.8353   -6.4246    0.4298 C.2       1 <0>        -0.1157
      8 C8         -8.9556   -5.9634    1.0279 C.2       1 <0>        -0.1403
      9 C9        -10.0964   -6.7982    1.1361 C.2       1 <0>         0.4689
     10 O1        -10.0666   -7.9297    0.6905 O.co2     1 <0>        -0.6375
     11 N1         -3.2998   -3.1065    0.0005 N.am      1 <0>        -0.6632
     12 C10        -3.4502   -1.7771   -0.1628 C.2       1 <0>         0.5285
     13 O2         -4.5577   -1.3062   -0.3135 O.2       1 <0>        -0.4945
     14 C11        -2.2424   -0.8759   -0.1582 C.3       1 <0>        -0.1523
     15 S1         -2.7696    0.8431   -0.3987 S.3       1 <0>        -0.0252
     16 C12        -1.2645    1.7586   -0.3695 C.ar      1 <0>        -0.0979
     17 C13        -0.0525    1.1027   -0.1888 C.ar      1 <0>        -0.1365
     18 C14         1.1230    1.8241   -0.1726 C.ar      1 <0>        -0.0866
     19 C15         1.1013    3.2009   -0.3299 C.ar      1 <0>        -0.1054
     20 C16        -0.1034    3.8575   -0.5042 C.ar      1 <0>        -0.0775
     21 C17        -1.2854    3.1387   -0.5201 C.ar      1 <0>        -0.0859
     22 C18         0.1410    5.3441   -0.6522 C.3       1 <0>        -0.0838
     23 C19         1.6417    5.4753   -0.9877 C.3       1 <0>        -0.1207
     24 C20         2.2366    4.2023   -0.3493 C.3       1 <0>        -0.0816
     25 H1         -5.4617   -7.0395   -0.6981 H         1 <0>         0.1298
     26 H2         -3.4890   -5.5879   -0.8816 H         1 <0>         0.1231
     27 H3         -5.5957   -2.4484    1.1260 H         1 <0>         0.1320
     28 H4         -7.5789   -3.8858    1.3091 H         1 <0>         0.1328
     29 H5         -7.8089   -7.4292    0.0342 H         1 <0>         0.1292
     30 H6         -8.9820   -4.9588    1.4235 H         1 <0>         0.1070
     31 H7         -2.4109   -3.4922    0.0442 H         1 <0>         0.4097
     32 H8         -1.5697   -1.1659   -0.9653 H         1 <0>         0.1191
     33 H9         -1.7248   -0.9670    0.7967 H         1 <0>         0.1204
     34 H10        -0.0308    0.0299   -0.0657 H         1 <0>         0.1232
     35 H11         2.0650    1.3136   -0.0363 H         1 <0>         0.1230
     36 H12        -2.2261    3.6516   -0.6562 H         1 <0>         0.1270
     37 H13        -0.4647    5.7480   -1.4635 H         1 <0>         0.0774
     38 H14        -0.0843    5.8593    0.2816 H         1 <0>         0.0826
     39 H15         1.7988    5.4775   -2.0663 H         1 <0>         0.0730
     40 H16         2.0638    6.3709   -0.5318 H         1 <0>         0.0776
     41 H17         2.5744    4.4108    0.6659 H         1 <0>         0.0800
     42 H18         3.0622    3.8265   -0.9537 H         1 <0>         0.0747
     43 O3        -11.2153   -6.3375    1.7333 O.co2     1 <0>        -0.7645
@<TRIPOS>BOND
     1    1    6 ar
     2    1    2 ar
     3    1   25 1
     4    2    3 ar
     5    2   26 1
     6    3    4 ar
     7    3   11 1
     8    4    5 ar
     9    4   27 1
    10    5    6 ar
    11    5   28 1
    12    6    7 1
    13    7    8 2
    14    7   29 1
    15    8    9 1
    16    8   30 1
    17    9   10 2
    18    9   43 1
    19   11   12 am
    20   11   31 1
    21   12   13 2
    22   12   14 1
    23   14   15 1
    24   14   32 1
    25   14   33 1
    26   15   16 1
    27   16   21 ar
    28   16   17 ar
    29   17   18 ar
    30   17   34 1
    31   18   19 ar
    32   18   35 1
    33   19   24 1
    34   19   20 ar
    35   20   21 ar
    36   20   22 1
    37   21   36 1
    38   22   23 1
    39   22   37 1
    40   22   38 1
    41   23   24 1
    42   23   39 1
    43   23   40 1
    44   24   41 1
    45   24   42 1
@<TRIPOS>MOLECULE
ZINC35426511
   28    29     0     0     0
SMALL
USER_CHARGES

@<TRIPOS>ATOM
      1 C1         -0.0167    1.3792    0.0096 C.ar      1 <0>        -0.1238
      2 C2          1.1668    2.0883    0.0021 C.ar      1 <0>        -0.0558
      3 C3          2.3849    1.4069   -0.0131 C.ar      1 <0>        -0.1238
      4 C4          2.3967    0.0107   -0.0207 C.ar      1 <0>        -0.0089
      5 C5          1.2062   -0.6859   -0.0130 C.ar      1 <0>        -0.1901
      6 C6          0.0021   -0.0041    0.0020 C.ar      1 <0>        -0.0461
      7 C7          1.2169   -2.1928   -0.0212 C.3       1 <0>         0.5109
      8 F1          1.2328   -2.6662    1.2952 F         1 <0>        -0.1740
      9 F2          0.0717   -2.6638   -0.6723 F         1 <0>        -0.1763
     10 F3          2.3561   -2.6475   -0.6940 F         1 <0>        -0.1718
     11 C8          3.6566    2.1599   -0.0217 C.2       1 <0>         0.5420
     12 O1          4.7159    1.5637   -0.0350 O.2       1 <0>        -0.4918
     13 N1          3.6418    3.5076   -0.0148 N.am      1 <0>        -0.6064
     14 C9          4.8351    4.2141   -0.0229 C.2       1 <0>        -0.0595
     15 C10         5.0107    5.5810   -0.0121 C.2       1 <0>        -0.2073
     16 C11         6.2847    6.0789   -0.0224 C.2       1 <0>        -0.1243
     17 C12         7.3069    5.1344   -0.0432 C.2       1 <0>        -0.2230
     18 S1          6.3990    3.6006   -0.0406 S.3       1 <0>         0.2947
     19 C13         8.7036    5.3388   -0.0581 C.2       1 <0>         0.5499
     20 O2          9.1565    6.4779   -0.0531 O.co2     1 <0>        -0.6778
     21 O3          9.4636    4.3771   -0.0759 O.co2     1 <0>        -0.6848
     22 H1         -0.9598    1.9052    0.0260 H         1 <0>         0.1445
     23 H2          1.1508    3.1682    0.0077 H         1 <0>         0.1376
     24 H3          3.3357   -0.5226   -0.0328 H         1 <0>         0.1543
     25 H4         -0.9272   -0.5543    0.0083 H         1 <0>         0.1424
     26 H5          2.7966    3.9833   -0.0042 H         1 <0>         0.4104
     27 H6          4.1596    6.2456    0.0037 H         1 <0>         0.1201
     28 H7          6.4851    7.1401   -0.0151 H         1 <0>         0.1387
@<TRIPOS>BOND
     1    1    6 ar
     2    1    2 ar
     3    1   22 1
     4    2    3 ar
     5    2   23 1
     6    3    4 ar
     7    3   11 1
     8    4    5 ar
     9    4   24 1
    10    5    6 ar
    11    5    7 1
    12    6   25 1
    13    7    8 1
    14    7    9 1
    15    7   10 1
    16   11   12 2
    17   11   13 am
    18   13   14 1
    19   13   26 1
    20   14   18 1
    21   14   15 2
    22   15   16 1
    23   15   27 1
    24   16   17 2
    25   16   28 1
    26   17   18 1
    27   17   19 1
    28   19   20 2
    29   19   21 1
@<TRIPOS>MOLECULE
ZINC41986235
   31    31     0     0     0
SMALL
USER_CHARGES

@<TRIPOS>ATOM
      1 C1         -0.9690    0.7119   -0.0319 C.3       1 <0>        -0.1551
      2 C2         -0.2557   -0.6331    0.1201 C.3       1 <0>        -0.0988
      3 C3          0.8475   -0.5091    1.1729 C.3       1 <0>        -0.0565
      4 C4          0.2526   -0.0219    2.4690 C.ar      1 <0>        -0.0005
      5 C5         -0.9964   -0.4627    2.8648 C.ar      1 <0>        -0.0890
      6 C6         -1.5422   -0.0165    4.0537 C.ar      1 <0>        -0.0938
      7 C7         -0.8385    0.8713    4.8474 C.ar      1 <0>        -0.1015
      8 C8          0.4113    1.3120    4.4510 C.ar      1 <0>        -0.0913
      9 C9          0.9586    0.8612    3.2645 C.ar      1 <0>        -0.1116
     10 Br1        -1.5850    1.4826    6.4737 Br        1 <0>        -0.0718
     11 C10         1.4889   -1.8555    1.3894 C.2       1 <0>         0.5073
     12 O1          2.6803   -2.0044    1.1771 O.co2     1 <0>        -0.6641
     13 O2          0.8165   -2.7959    1.7767 O.co2     1 <0>        -0.6733
     14 S1          2.0996    0.6721    0.6005 S.3       1 <0>        -0.2261
     15 C11         2.7099   -0.0509   -0.9472 C.3       1 <0>        -0.0934
     16 C12         3.7867    0.8573   -1.5445 C.3       1 <0>         0.0986
     17 O3          4.2675    0.2877   -2.7638 O.3       1 <0>        -0.5711
     18 H1         -0.2346    1.4920   -0.2327 H         1 <0>         0.0680
     19 H2         -1.6759    0.6567   -0.8598 H         1 <0>         0.0475
     20 H3         -1.5046    0.9452    0.8883 H         1 <0>         0.0535
     21 H4         -0.9732   -1.3915    0.4333 H         1 <0>         0.0762
     22 H5          0.1840   -0.9212   -0.8347 H         1 <0>         0.0590
     23 H6         -1.5459   -1.1555    2.2448 H         1 <0>         0.1340
     24 H7         -2.5182   -0.3606    4.3626 H         1 <0>         0.1281
     25 H8          0.9611    2.0051    5.0704 H         1 <0>         0.1276
     26 H9          1.9361    1.2021    2.9569 H         1 <0>         0.1390
     27 H10         3.1347   -1.0343   -0.7461 H         1 <0>         0.1110
     28 H11         1.8848   -0.1488   -1.6527 H         1 <0>         0.0728
     29 H12         3.3619    1.8408   -1.7456 H         1 <0>         0.0466
     30 H13         4.6118    0.9552   -0.8391 H         1 <0>         0.0529
     31 H14         4.9541    0.8116   -3.1987 H         1 <0>         0.3757
@<TRIPOS>BOND
     1    1    2 1
     2    1   18 1
     3    1   19 1
     4    1   20 1
     5    2    3 1
     6    2   21 1
     7    2   22 1
     8    3    4 1
     9    3   11 1
    10    3   14 1
    11    4    9 ar
    12    4    5 ar
    13    5    6 ar
    14    5   23 1
    15    6    7 ar
    16    6   24 1
    17    7    8 ar
    18    7   10 1
    19    8    9 ar
    20    8   25 1
    21    9   26 1
    22   11   12 2
    23   11   13 1
    24   14   15 1
    25   15   16 1
    26   15   27 1
    27   15   28 1
    28   16   17 1
    29   16   29 1
    30   16   30 1
    31   17   31 1
@<TRIPOS>MOLECULE
ZINC50847487
   38    38     0     0     0
SMALL
USER_CHARGES

@<TRIPOS>ATOM
      1 C1         -0.0184    1.5028    0.0103 C.3       1 <0>        -0.1245
      2 C2          0.0021   -0.0041    0.0020 C.ar      1 <0>        -0.0407
      3 C3          0.0058   -0.6873   -1.1982 C.ar      1 <0>        -0.1298
      4 C4          0.0251   -2.0766   -1.2050 C.ar      1 <0>        -0.0677
      5 C5          0.0406   -2.7743   -0.0030 C.ar      1 <0>        -0.0738
      6 C6          0.0368   -2.0854    1.1934 C.ar      1 <0>        -0.0699
      7 C7          0.0229   -0.7015    1.1968 C.ar      1 <0>        -0.1053
      8 Br1         0.0250    0.2382    2.8378 Br        1 <0>        -0.0590
      9 C8          0.0611   -4.2811   -0.0058 C.3       1 <0>        -0.1150
     10 S1          0.0293   -2.9520   -2.7341 S.3       1 <0>        -0.0483
     11 C9          0.0045   -1.6427   -3.9894 C.3       1 <0>        -0.1232
     12 C10         0.0060   -2.2634   -5.3627 C.2       1 <0>         0.3577
     13 O1          1.1351   -2.7989   -5.8568 O.3       1 <0>        -0.5938
     14 C11        -1.1381   -2.2816   -6.1037 C.2       1 <0>        -0.4068
     15 C12        -2.3414   -1.7109   -5.5771 C.1       1 <0>         0.2968
     16 N1         -3.2959   -1.2582   -5.1594 N.1       1 <0>        -0.5326
     17 C13        -1.1367   -2.8870   -7.4433 C.2       1 <0>         0.5933
     18 O2         -0.1145   -3.3719   -7.8907 O.2       1 <0>        -0.5414
     19 N2         -2.2678   -2.9050   -8.1759 N.am      1 <0>        -0.7516
     20 C14        -2.2664   -3.5084   -9.5109 C.3       1 <0>         0.1519
     21 C15        -3.6436   -3.3993  -10.1129 C.2       1 <0>        -0.1629
     22 C16        -3.8041   -2.8316  -11.2825 C.2       1 <0>        -0.1822
     23 H1          1.0042    1.8801    0.0026 H         1 <0>         0.0773
     24 H2         -0.5455    1.8639   -0.8728 H         1 <0>         0.0716
     25 H3         -0.5286    1.8543    0.9071 H         1 <0>         0.0762
     26 H4         -0.0067   -0.1423   -2.1305 H         1 <0>         0.1317
     27 H5          0.0485   -2.6270    2.1277 H         1 <0>         0.1336
     28 H6          1.0936   -4.6305   -0.0116 H         1 <0>         0.0769
     29 H7         -0.4433   -4.6530    0.8861 H         1 <0>         0.0695
     30 H8         -0.4523   -4.6499   -0.8938 H         1 <0>         0.0769
     31 H9         -0.8934   -1.0373   -3.8653 H         1 <0>         0.0895
     32 H10         0.8864   -1.0125   -3.8746 H         1 <0>         0.0987
     33 H11        -3.0829   -2.5185   -7.8193 H         1 <0>         0.3894
     34 H12        -1.5503   -2.9858  -10.1450 H         1 <0>         0.0629
     35 H13        -1.9854   -4.5588   -9.4346 H         1 <0>         0.0676
     36 H14        -4.4983   -3.7892   -9.5801 H         1 <0>         0.1108
     37 H15        -2.9494   -2.4417  -11.8154 H         1 <0>         0.0986
     38 H16        -4.7911   -2.7534  -11.7140 H         1 <0>         0.0976
@<TRIPOS>BOND
     1    1    2 1
     2    1   23 1
     3    1   24 1
     4    1   25 1
     5    2    7 ar
     6    2    3 ar
     7    3    4 ar
     8    3   26 1
     9    4    5 ar
    10    4   10 1
    11    5    6 ar
    12    5    9 1
    13    6    7 ar
    14    6   27 1
    15    7    8 1
    16    9   28 1
    17    9   29 1
    18    9   30 1
    19   10   11 1
    20   11   12 1
    21   11   31 1
    22   11   32 1
    23   12   13 1
    24   12   14 2
    25   14   15 1
    26   14   17 1
    27   15   16 3
    28   17   18 2
    29   17   19 am
    30   19   20 1
    31   19   33 1
    32   20   21 1
    33   20   34 1
    34   20   35 1
    35   21   22 2
    36   21   36 1
    37   22   37 1
    38   22   38 1
@<TRIPOS>MOLECULE
ZINC02989203
   23    24     0     0     0
SMALL
USER_CHARGES
3-[(4-oxo-2-thioxo-thiazolidin-5-ylidene)methyl]benzoic acid
@<TRIPOS>ATOM
      1 C1          1.1557    1.3799    0.7903 C.ar      1 <0>        -0.1495
      2 C2         -0.0822    0.8092    0.5742 C.ar      1 <0>        -0.0435
      3 C3         -1.1815    1.6155    0.2555 C.ar      1 <0>        -0.1413
      4 C4         -1.0238    3.0007    0.1671 C.ar      1 <0>        -0.0375
      5 C5          0.2296    3.5670    0.3865 C.ar      1 <0>        -0.1277
      6 C6          1.3186    2.7482    0.6990 C.ar      1 <0>        -0.0395
      7 C7          0.4078    5.0305    0.2887 C.2       1 <0>         0.4902
      8 O1         -0.5393    5.7409    0.0171 O.co2     1 <0>        -0.6294
      9 C8         -2.4989    1.0067    0.0198 C.2       1 <0>         0.1377
     10 C9         -2.5935   -0.1632   -0.6593 C.2       1 <0>        -0.2778
     11 C10        -1.5504   -0.9184   -1.3857 C.2       1 <0>         0.5347
     12 O2         -0.4012   -0.5233   -1.4483 O.2       1 <0>        -0.4395
     13 N1         -1.9296   -2.0476   -1.9602 N.am      1 <0>        -0.6287
     14 C11        -3.2059   -2.4778   -1.8948 C.2       1 <0>         0.2925
     15 S1         -3.8861   -3.8944   -2.5741 S.2       1 <0>        -0.3663
     16 S2         -4.0153   -1.2127   -0.9291 S.3       1 <0>         0.0812
     17 H1          2.0014    0.7531    1.0318 H         1 <0>         0.1223
     18 H2         -0.2021   -0.2617    0.6465 H         1 <0>         0.1146
     19 H3         -1.8684    3.6288   -0.0746 H         1 <0>         0.1353
     20 H4          2.2906    3.1871    0.8692 H         1 <0>         0.1357
     21 H5         -3.3913    1.4912    0.3875 H         1 <0>         0.1592
     22 H6         -1.2756   -2.5761   -2.4438 H         1 <0>         0.4277
     23 O3          1.6207    5.5769    0.5008 O.co2     1 <0>        -0.7504
@<TRIPOS>BOND
     1    1    6 ar
     2    1    2 ar
     3    1   17 1
     4    2    3 ar
     5    2   18 1
     6    3    4 ar
     7    3    9 1
     8    4    5 ar
     9    4   19 1
    10    5    6 ar
    11    5    7 1
    12    6   20 1
    13    7    8 2
    14    7   23 1
    15    9   10 2
    16    9   21 1
    17   10   16 1
    18   10   11 1
    19   11   12 2
    20   11   13 am
    21   13   14 1
    22   13   22 1
    23   14   15 2
    24   14   16 1
@<TRIPOS>MOLECULE
ZINC04639154
   34    36     0     0     0
SMALL
USER_CHARGES
(3aS,4S,9bR)-7,9-dimethyl-3a,4,5,9b-tetrahydro-3H-cyclopenta[c]quinoline-4-carboxylic acid
@<TRIPOS>ATOM
      1 C1          1.8650   -5.3622   -3.1370 C.3       1 <0>        -0.1091
      2 C2          1.7556   -4.0897   -2.3372 C.ar      1 <0>        -0.0473
      3 C3          1.1769   -4.1060   -1.0810 C.ar      1 <0>        -0.1883
      4 C4          1.0769   -2.9430   -0.3452 C.ar      1 <0>        -0.0409
      5 C5          1.5543   -1.7427   -0.8543 C.ar      1 <0>        -0.1503
      6 C6          2.1312   -1.7306   -2.1148 C.ar      1 <0>         0.2370
      7 C7          2.2330   -2.9021   -2.8546 C.ar      1 <0>        -0.2033
      8 N1          2.6158   -0.5343   -2.6544 N.pl3     1 <0>        -0.7258
      9 C8          2.1222    0.7298   -2.0978 C.3       1 <0>         0.1184
     10 H1          1.0784    0.8697   -2.3792 H         1 <0>         0.0694
     11 C9          2.2397    0.6787   -0.5720 C.3       1 <0>        -0.0817
     12 H2          3.2751    0.6764   -0.2314 H         1 <0>         0.0847
     13 C10         1.4257   -0.5077   -0.0204 C.3       1 <0>        -0.0105
     14 H3          1.7496   -0.7311    0.9961 H         1 <0>         0.0824
     15 C11         0.0021   -0.0041    0.0020 C.2       1 <0>        -0.1674
     16 C12        -0.0157    1.3064    0.0092 C.2       1 <0>        -0.1527
     17 C13         1.3972    1.8569   -0.0013 C.3       1 <0>        -0.1105
     18 C14         2.9484    1.8724   -2.6298 C.2       1 <0>         0.4655
     19 O1          4.0428    1.6607   -3.0960 O.co2     1 <0>        -0.6327
     20 C15         0.4447   -2.9759    1.0224 C.3       1 <0>        -0.1131
     21 H4          0.9724   -5.4834   -3.7508 H         1 <0>         0.0654
     22 H5          2.7439   -5.3130   -3.7797 H         1 <0>         0.0619
     23 H6          1.9576   -6.2107   -2.4590 H         1 <0>         0.0614
     24 H7          0.8018   -5.0334   -0.6740 H         1 <0>         0.1097
     25 H8          2.6858   -2.8838   -3.8349 H         1 <0>         0.1151
     26 H9          3.2615   -0.5407   -3.3783 H         1 <0>         0.4056
     27 H10        -0.8755   -0.6335    0.0112 H         1 <0>         0.1186
     28 H11        -0.9114    1.9098    0.0169 H         1 <0>         0.1209
     29 H12         1.4650    2.7283   -0.6526 H         1 <0>         0.1084
     30 H13         1.7200    2.1056    1.0096 H         1 <0>         0.0684
     31 H14        -0.6266   -2.7966    0.9319 H         1 <0>         0.0667
     32 H15         0.6125   -3.9524    1.4768 H         1 <0>         0.0590
     33 H16         0.8910   -2.2027    1.6477 H         1 <0>         0.0670
     34 O2          2.4685    3.1251   -2.5856 O.co2     1 <0>        -0.7520
@<TRIPOS>BOND
     1    1    2 1
     2    1   21 1
     3    1   22 1
     4    1   23 1
     5    2    7 ar
     6    2    3 ar
     7    3    4 ar
     8    3   24 1
     9    4    5 ar
    10    4   20 1
    11    5   13 1
    12    5    6 ar
    13    6    7 ar
    14    6    8 1
    15    7   25 1
    16    8    9 1
    17    8   26 1
    18    9   10 1
    19    9   11 1
    20    9   18 1
    21   11   12 1
    22   11   17 1
    23   11   13 1
    24   13   14 1
    25   13   15 1
    26   15   16 2
    27   15   27 1
    28   16   17 1
    29   16   28 1
    30   17   29 1
    31   17   30 1
    32   18   19 2
    33   18   34 1
    34   20   31 1
    35   20   32 1
    36   20   33 1
@<TRIPOS>MOLECULE
ZINC22782125
   25    26     0     0     0
SMALL
USER_CHARGES
(3S,4S)-4-(4-chlorophenyl)-2-oxo-pyrrolidine-3-carboxylic acid
@<TRIPOS>ATOM
      1 C1          0.0115    1.0004   -0.6829 C.ar      1 <0>        -0.0966
      2 C2          1.2140    1.6732   -0.7907 C.ar      1 <0>        -0.1155
      3 C3          1.3011    2.9996   -0.4070 C.ar      1 <0>        -0.0344
      4 C4          0.1842    3.6518    0.0842 C.ar      1 <0>        -0.1043
      5 C5         -1.0178    2.9780    0.1915 C.ar      1 <0>        -0.0727
      6 C6         -1.1055    1.6541   -0.1969 C.ar      1 <0>        -0.0596
      7 C7         -2.4178    0.9218   -0.0855 C.3       1 <0>        -0.0471
      8 H1         -2.1387   -0.1389   -0.1692 H         1 <0>         0.0951
      9 C8         -3.1494    1.2942    1.2232 C.3       1 <0>         0.1077
     10 N1         -4.5759    1.3242    0.8795 N.am      1 <0>        -0.7383
     11 C9         -4.7562    1.3967   -0.4506 C.2       1 <0>         0.5583
     12 O1         -5.8345    1.4427   -1.0039 O.2       1 <0>        -0.5456
     13 C10        -3.4185    1.4134   -1.1569 C.3       1 <0>        -0.1705
     14 H2         -3.4256    0.8031   -2.0720 H         1 <0>         0.1096
     15 C11        -3.0711    2.8108   -1.6014 C.2       1 <0>         0.4884
     16 O2         -3.5596    3.7625   -1.0397 O.co2     1 <0>        -0.6304
     17 O3         -2.2189    2.9982   -2.6214 O.co2     1 <0>        -0.7434
     18 Cl1         2.8113    3.8451   -0.5416 Cl        1 <0>        -0.0908
     19 H3         -0.0567   -0.0349   -0.9826 H         1 <0>         0.1257
     20 H4          2.0856    1.1635   -1.1739 H         1 <0>         0.1260
     21 H5          0.2515    4.6873    0.3835 H         1 <0>         0.1261
     22 H6         -1.8898    3.4871    0.5747 H         1 <0>         0.1387
     23 H7         -2.9368    0.5355    1.9908 H         1 <0>         0.0753
     24 H8         -2.7993    2.2769    1.5721 H         1 <0>         0.0753
     25 H9         -5.3343    1.2879    1.6754 H         1 <0>         0.4230
@<TRIPOS>BOND
     1    1    6 ar
     2    1    2 ar
     3    1   19 1
     4    2    3 ar
     5    2   20 1
     6    3    4 ar
     7    3   18 1
     8    4    5 ar
     9    4   21 1
    10    5    6 ar
    11    5   22 1
    12    6    7 1
    13    7    8 1
    14    7   13 1
    15    7    9 1
    16    9   10 1
    17    9   23 1
    18    9   24 1
    19   10   11 am
    20   10   25 1
    21   11   12 2
    22   11   13 1
    23   13   14 1
    24   13   15 1
    25   15   16 2
    26   15   17 1
@<TRIPOS>MOLECULE
ZINC39293977
   22    23     0     0     0
SMALL
USER_CHARGES

@<TRIPOS>ATOM
      1 C1         -0.0175    1.4404    0.0100 C.2       1 <0>        -0.1069
      2 C2          1.1861    2.0516    0.0018 C.2       1 <0>        -0.2328
      3 S1          2.3275    0.6837   -0.0167 S.3       1 <0>         0.1752
      4 C3          1.2482   -0.5852   -0.0149 C.2       1 <0>        -0.1587
      5 C4          0.0021   -0.0041    0.0020 C.2       1 <0>        -0.1258
      6 C5         -1.2052   -0.8868    0.0131 C.2       1 <0>         0.2079
      7 N1         -2.3959   -0.4300   -0.2108 N.2       1 <0>        -0.3539
      8 O1         -3.5067   -1.3079   -0.1889 O.3       1 <0>        -0.4084
      9 C6         -0.9431   -2.3525    0.3033 C.3       1 <0>        -0.0887
     10 C7          0.2771   -2.8052   -0.5053 C.3       1 <0>        -0.1421
     11 H1          0.1093   -2.5952   -1.5616 H         1 <0>         0.0680
     12 C8          1.5277   -2.0567   -0.0299 C.3       1 <0>        -0.0228
     13 C9          0.4811   -4.2863   -0.3160 C.2       1 <0>         0.5008
     14 O2         -0.3956   -5.0689   -0.6406 O.co2     1 <0>        -0.6924
     15 O3          1.5230   -4.7020    0.1619 O.co2     1 <0>        -0.6924
     16 H2         -0.9417    1.9990    0.0261 H         1 <0>         0.1397
     17 H3          1.4036    3.1094    0.0052 H         1 <0>         0.1844
     18 H4         -4.3532   -0.8757   -0.3671 H         1 <0>         0.3940
     19 H5         -0.7460   -2.4848    1.3671 H         1 <0>         0.0804
     20 H6         -1.8124   -2.9433    0.0145 H         1 <0>         0.0926
     21 H7          2.3550   -2.2629   -0.7089 H         1 <0>         0.0846
     22 H8          1.7900   -2.3875    0.9750 H         1 <0>         0.0971
@<TRIPOS>BOND
     1    1    5 1
     2    1    2 2
     3    1   16 1
     4    2    3 1
     5    2   17 1
     6    3    4 1
     7    4   12 1
     8    4    5 2
     9    5    6 1
    10    6    7 2
    11    6    9 1
    12    7    8 1
    13    8   18 1
    14    9   10 1
    15    9   19 1
    16    9   20 1
    17   10   11 1
    18   10   12 1
    19   10   13 1
    20   12   21 1
    21   12   22 1
    22   13   14 2
    23   13   15 1
@<TRIPOS>MOLECULE
ZINC51348595
   24    24     0     0     0
SMALL
USER_CHARGES

@<TRIPOS>ATOM
      1 C1         -0.8092    1.3761   -0.4922 C.3       1 <0>         0.1025
      2 N1         -0.5756   -0.0644   -0.3638 N.pl3     1 <0>        -0.7422
      3 C2          0.1933   -0.7132   -1.2798 C.2       1 <0>         0.5526
      4 O1          0.7394   -0.0314   -2.3040 O.3       1 <0>        -0.6430
      5 C3          0.4158   -2.0855   -1.1574 C.2       1 <0>        -0.4537
      6 C4         -0.1651   -2.8107   -0.0679 C.1       1 <0>         0.3007
      7 N2         -0.6259   -3.3861    0.7965 N.1       1 <0>        -0.5437
      8 C5          1.2417   -2.7823   -2.1413 C.2       1 <0>         0.4538
      9 O2          1.8325   -2.1496   -2.9981 O.2       1 <0>        -0.4800
     10 C6          1.3600   -4.2555   -2.0966 C.ar      1 <0>        -0.1015
     11 C7          2.4824   -4.8847   -2.6389 C.ar      1 <0>        -0.0629
     12 C8          2.5892   -6.2585   -2.5948 C.ar      1 <0>        -0.1373
     13 C9          1.5849   -7.0164   -2.0135 C.ar      1 <0>         0.0652
     14 C10         0.4661   -6.3970   -1.4729 C.ar      1 <0>         0.0579
     15 C11         0.3527   -5.0214   -1.5071 C.ar      1 <0>        -0.0974
     16 F1         -0.5102   -7.1407   -0.9083 F         1 <0>        -0.1319
     17 F2          1.6948   -8.3623   -1.9730 F         1 <0>        -0.1345
     18 H1          0.1441    1.9034   -0.4565 H         1 <0>         0.0500
     19 H2         -1.3024    1.5810   -1.4424 H         1 <0>         0.0499
     20 H3         -1.4432    1.7158    0.3269 H         1 <0>         0.0565
     21 H4         -0.9691   -0.5557    0.3743 H         1 <0>         0.3901
     22 H5          3.2658   -4.2959   -3.0926 H         1 <0>         0.1478
     23 H6          3.4571   -6.7452   -3.0145 H         1 <0>         0.1450
     24 H7         -0.5155   -4.5392   -1.0826 H         1 <0>         0.1561
@<TRIPOS>BOND
     1    1    2 1
     2    1   18 1
     3    1   19 1
     4    1   20 1
     5    2    3 1
     6    2   21 1
     7    3    4 1
     8    3    5 2
     9    5    6 1
    10    5    8 1
    11    6    7 3
    12    8    9 2
    13    8   10 1
    14   10   15 ar
    15   10   11 ar
    16   11   12 ar
    17   11   22 1
    18   12   13 ar
    19   12   23 1
    20   13   14 ar
    21   13   17 1
    22   14   15 ar
    23   14   16 1
    24   15   24 1
@<TRIPOS>MOLECULE
ZINC05094791
   46    48     0     0     0
SMALL
USER_CHARGES
7-isopropylidene-3-[(4-methoxyphenyl)carbamoyl]norbornane-2-carboxylic acid
@<TRIPOS>ATOM
      1 C1         -7.6559   -1.7404   -3.0069 C.3       1 <0>        -0.0994
      2 C2         -8.5738   -0.7269   -2.3735 C.2       1 <0>        -0.1075
      3 C3         -8.9246   -0.8554   -1.1179 C.2       1 <0>        -0.1067
      4 C4         -8.5647   -1.9195   -0.0560 C.3       1 <0>        -0.0510
      5 H1         -7.8953   -2.7153   -0.3826 H         1 <0>         0.0938
      6 C5         -9.9859   -2.3580    0.4113 C.3       1 <0>        -0.1117
      7 C6        -10.8349   -1.0694    0.3060 C.3       1 <0>        -0.1203
      8 C7         -9.8341    0.0071   -0.2134 C.3       1 <0>        -0.0453
      9 H2        -10.2715    0.8912   -0.6772 H         1 <0>         0.0998
     10 C8         -8.8802    0.2744    0.9902 C.3       1 <0>        -0.1163
     11 H3         -9.4535    0.4291    1.9043 H         1 <0>         0.0742
     12 C9         -8.0312   -1.0143    1.0955 C.3       1 <0>        -0.0838
     13 H4         -8.1837   -1.4961    2.0613 H         1 <0>         0.0797
     14 C10        -6.5715   -0.7024    0.8879 C.2       1 <0>         0.5423
     15 O1         -6.1364   -0.5555   -0.2348 O.2       1 <0>        -0.5110
     16 N1         -5.7494   -0.5868    1.9496 N.am      1 <0>        -0.6588
     17 C11        -4.4123   -0.2124    1.7629 C.ar      1 <0>         0.1476
     18 C12        -3.7225   -0.6389    0.6359 C.ar      1 <0>        -0.0886
     19 C13        -2.4048   -0.2692    0.4522 C.ar      1 <0>        -0.1347
     20 C14        -1.7700    0.5279    1.3935 C.ar      1 <0>         0.0929
     21 C15        -2.4570    0.9500    2.5224 C.ar      1 <0>        -0.1893
     22 C16        -3.7765    0.5857    2.7045 C.ar      1 <0>        -0.0996
     23 O2         -0.4723    0.8909    1.2125 O.3       1 <0>        -0.3229
     24 C17         0.1184    1.7125    2.2215 C.3       1 <0>         0.0297
     25 C18        -7.9994    1.4648    0.7108 C.2       1 <0>         0.4657
     26 O3         -8.0720    2.0337   -0.3527 O.co2     1 <0>        -0.6193
     27 C19        -9.0882    0.4345   -3.1844 C.3       1 <0>        -0.0979
     28 H5         -8.2485   -2.5440   -3.4443 H         1 <0>         0.0501
     29 H6         -7.0655   -1.2588   -3.7864 H         1 <0>         0.0538
     30 H7         -6.9899   -2.1516   -2.2484 H         1 <0>         0.0619
     31 H8        -10.3823   -3.1309   -0.2473 H         1 <0>         0.0633
     32 H9         -9.9562   -2.7121    1.4417 H         1 <0>         0.0632
     33 H10       -11.2239   -0.7880    1.2845 H         1 <0>         0.0622
     34 H11       -11.6513   -1.2051   -0.4034 H         1 <0>         0.0600
     35 H12        -6.0835   -0.7629    2.8431 H         1 <0>         0.4020
     36 H13        -4.2164   -1.2600   -0.0968 H         1 <0>         0.1418
     37 H14        -1.8682   -0.6009   -0.4244 H         1 <0>         0.1267
     38 H15        -1.9609    1.5668    3.2571 H         1 <0>         0.1245
     39 H16        -4.3124    0.9178    3.5813 H         1 <0>         0.1261
     40 H17        -0.4384    2.6462    2.3017 H         1 <0>         0.0530
     41 H18         1.1530    1.9283    1.9547 H         1 <0>         0.0935
     42 H19         0.0911    1.1899    3.1776 H         1 <0>         0.0511
     43 H20        -9.7325    1.0553   -2.5619 H         1 <0>         0.0635
     44 H21        -8.2473    1.0283   -3.5425 H         1 <0>         0.0595
     45 H22        -9.6569    0.0598   -4.0355 H         1 <0>         0.0461
     46 O4         -7.1342    1.8932    1.6434 O.co2     1 <0>        -0.7640
@<TRIPOS>BOND
     1    1    2 1
     2    1   28 1
     3    1   29 1
     4    1   30 1
     5    2    3 2
     6    2   27 1
     7    3    8 1
     8    3    4 1
     9    4    5 1
    10    4   12 1
    11    4    6 1
    12    6    7 1
    13    6   31 1
    14    6   32 1
    15    7    8 1
    16    7   33 1
    17    7   34 1
    18    8    9 1
    19    8   10 1
    20   10   11 1
    21   10   12 1
    22   10   25 1
    23   12   13 1
    24   12   14 1
    25   14   15 2
    26   14   16 am
    27   16   17 1
    28   16   35 1
    29   17   22 ar
    30   17   18 ar
    31   18   19 ar
    32   18   36 1
    33   19   20 ar
    34   19   37 1
    35   20   21 ar
    36   20   23 1
    37   21   22 ar
    38   21   38 1
    39   22   39 1
    40   23   24 1
    41   24   40 1
    42   24   41 1
    43   24   42 1
    44   25   26 2
    45   25   46 1
    46   27   43 1
    47   27   44 1
    48   27   45 1
@<TRIPOS>MOLECULE
ZINC13438806
   35    36     0     0     0
SMALL
USER_CHARGES
2-[4-[[(E)-3-(5-bromo-2-fluoro-phenyl)prop-2-enoyl]amino]phenyl]acetic acid
@<TRIPOS>ATOM
      1 C1         -3.4907    1.0672   -0.9090 C.ar      1 <0>        -0.0980
      2 C2         -4.5233    0.1502   -0.9157 C.ar      1 <0>        -0.1133
      3 C3         -4.5442   -0.8768    0.0193 C.ar      1 <0>         0.1137
      4 C4         -3.5231   -0.9806    0.9552 C.ar      1 <0>        -0.1391
      5 C5         -2.4908   -0.0631    0.9533 C.ar      1 <0>        -0.0980
      6 C6         -2.4729    0.9578    0.0208 C.ar      1 <0>        -0.0371
      7 C7         -1.3449    1.9572    0.0218 C.3       1 <0>        -0.1315
      8 C8         -0.2350    1.4628   -0.8698 C.2       1 <0>         0.4644
      9 O1         -0.3484    0.4073   -1.4467 O.co2     1 <0>        -0.6286
     10 N1         -5.5909   -1.8037    0.0188 N.am      1 <0>        -0.6617
     11 C9         -6.1701   -2.1654   -1.1432 C.2       1 <0>         0.5388
     12 O2         -5.7206   -1.7601   -2.1993 O.2       1 <0>        -0.5160
     13 C10        -7.3389   -3.0452   -1.1352 C.2       1 <0>        -0.1883
     14 C11        -7.9186   -3.4073   -2.2985 C.2       1 <0>        -0.0308
     15 C12        -9.0937   -4.2918   -2.2904 C.ar      1 <0>        -0.0939
     16 C13        -9.6135   -4.7599   -1.0789 C.ar      1 <0>        -0.0485
     17 C14       -10.7154   -5.5889   -1.0796 C.ar      1 <0>        -0.1055
     18 C15       -11.3088   -5.9592   -2.2759 C.ar      1 <0>        -0.0538
     19 C16       -10.8026   -5.5019   -3.4784 C.ar      1 <0>        -0.1477
     20 C17        -9.7022   -4.6656   -3.4955 C.ar      1 <0>         0.1379
     21 F1         -9.2117   -4.2147   -4.6708 F         1 <0>        -0.1220
     22 Br1       -11.4187   -6.2229    0.5572 Br        1 <0>        -0.0363
     23 H1         -3.4758    1.8681   -1.6333 H         1 <0>         0.1201
     24 H2         -5.3158    0.2337   -1.6447 H         1 <0>         0.1270
     25 H3         -3.5361   -1.7782    1.6833 H         1 <0>         0.1185
     26 H4         -1.6966   -0.1433    1.6807 H         1 <0>         0.1209
     27 H5         -0.9682    2.0790    1.0373 H         1 <0>         0.0756
     28 H6         -1.7085    2.9158   -0.3483 H         1 <0>         0.0758
     29 H7         -5.9003   -2.1864    0.8546 H         1 <0>         0.4070
     30 H8         -7.7377   -3.4048   -0.1982 H         1 <0>         0.1326
     31 H9         -7.5199   -3.0477   -3.2355 H         1 <0>         0.1467
     32 H10        -9.1526   -4.4730   -0.1453 H         1 <0>         0.1486
     33 H11       -12.1718   -6.6085   -2.2687 H         1 <0>         0.1460
     34 H12       -11.2709   -5.7952   -4.4064 H         1 <0>         0.1503
     35 O3          0.8771    2.1977   -1.0273 O.co2     1 <0>        -0.7739
@<TRIPOS>BOND
     1    1    6 ar
     2    1    2 ar
     3    1   23 1
     4    2    3 ar
     5    2   24 1
     6    3    4 ar
     7    3   10 1
     8    4    5 ar
     9    4   25 1
    10    5    6 ar
    11    5   26 1
    12    6    7 1
    13    7    8 1
    14    7   27 1
    15    7   28 1
    16    8    9 2
    17    8   35 1
    18   10   11 am
    19   10   29 1
    20   11   12 2
    21   11   13 1
    22   13   14 2
    23   13   30 1
    24   14   15 1
    25   14   31 1
    26   15   20 ar
    27   15   16 ar
    28   16   17 ar
    29   16   32 1
    30   17   18 ar
    31   17   22 1
    32   18   19 ar
    33   18   33 1
    34   19   20 ar
    35   19   34 1
    36   20   21 1
@<TRIPOS>MOLECULE
ZINC37334848
   28    29     0     0     0
SMALL
USER_CHARGES

@<TRIPOS>ATOM
      1 C1         -1.7406    2.0261    0.5784 C.2       1 <0>        -0.1369
      2 C2         -1.0486    3.1851    0.7009 C.2       1 <0>        -0.1758
      3 S1          0.6302    2.6437    0.4258 S.3       1 <0>         0.0143
      4 C3          0.2960    0.9093    0.1660 C.2       1 <0>        -0.1600
      5 C4         -1.0515    0.8596    0.3042 C.2       1 <0>        -0.0932
      6 C5         -1.7872   -0.4478    0.1616 C.3       1 <0>        -0.0832
      7 C6         -2.1845   -0.6461   -1.2785 C.2       1 <0>         0.5144
      8 O1         -1.8984    0.1917   -2.1074 O.2       1 <0>        -0.5155
      9 N1         -2.8578   -1.7546   -1.6453 N.am      1 <0>        -0.6443
     10 C7         -3.3260   -1.8850   -2.9503 C.ar      1 <0>         0.1875
     11 C8         -4.6756   -2.1911   -3.1885 C.ar      1 <0>        -0.1282
     12 C9         -5.1329   -2.3193   -4.5038 C.ar      1 <0>        -0.0599
     13 C10        -4.2589   -2.1449   -5.5557 C.ar      1 <0>        -0.0463
     14 C11        -2.9267   -1.8431   -5.3167 C.ar      1 <0>        -0.1000
     15 C12        -2.4616   -1.7072   -4.0232 C.ar      1 <0>        -0.0342
     16 Cl1        -0.7934   -1.3209   -3.7378 Cl        1 <0>        -0.0520
     17 Cl2        -4.8289   -2.3046   -7.1876 Cl        1 <0>        -0.0768
     18 C13        -5.6028   -2.3764   -2.0610 C.2       1 <0>         0.5280
     19 O2         -6.7511   -2.7447   -2.2675 O.co2     1 <0>        -0.6743
     20 O3         -5.2255   -2.1623   -0.9171 O.co2     1 <0>        -0.6751
     21 H1         -2.8139    2.0134    0.6976 H         1 <0>         0.1339
     22 H2         -1.4171    4.1784    0.9104 H         1 <0>         0.1830
     23 H3          0.9879    0.1077   -0.0467 H         1 <0>         0.1811
     24 H4         -1.1388   -1.2658    0.4756 H         1 <0>         0.0995
     25 H5         -2.6804   -0.4321    0.7861 H         1 <0>         0.1092
     26 H6         -3.0162   -2.4615   -1.0003 H         1 <0>         0.4201
     27 H7         -6.1693   -2.5550   -4.6954 H         1 <0>         0.1467
     28 H8         -2.2496   -1.7087   -6.1473 H         1 <0>         0.1379
@<TRIPOS>BOND
     1    1    5 1
     2    1    2 2
     3    1   21 1
     4    2    3 1
     5    2   22 1
     6    3    4 1
     7    4    5 2
     8    4   23 1
     9    5    6 1
    10    6    7 1
    11    6   24 1
    12    6   25 1
    13    7    8 2
    14    7    9 am
    15    9   10 1
    16    9   26 1
    17   10   15 ar
    18   10   11 ar
    19   11   12 ar
    20   11   18 1
    21   12   13 ar
    22   12   27 1
    23   13   14 ar
    24   13   17 1
    25   14   15 ar
    26   14   28 1
    27   15   16 1
    28   18   19 2
    29   18   20 1
@<TRIPOS>MOLECULE
ZINC41769084
   31    32     0     0     0
SMALL
USER_CHARGES

@<TRIPOS>ATOM
      1 C1         -0.0367    1.5102   -0.2229 C.3       1 <0>        -0.1292
      2 C2          0.0005   -0.0057   -0.0186 C.3       1 <0>         0.1470
      3 C3          0.7951   -0.3261    1.2212 C.ar      1 <0>         0.1397
      4 C4          2.1185    0.0643    1.3043 C.ar      1 <0>        -0.1449
      5 C5          2.8405   -0.2354    2.4491 C.ar      1 <0>        -0.0858
      6 C6          2.2016   -0.9195    3.4722 C.ar      1 <0>        -0.1900
      7 C7          0.8759   -1.2773    3.3177 C.ar      1 <0>         0.0870
      8 N1          0.2183   -0.9708    2.2163 N.ar      1 <0>        -0.4641
      9 C8          0.6483   -0.6577   -1.2129 C.2       1 <0>         0.4973
     10 O1          1.7945   -0.3731   -1.5159 O.co2     1 <0>        -0.6835
     11 O2          0.0262   -1.4699   -1.8761 O.co2     1 <0>        -0.6581
     12 N2         -1.3659   -0.5117    0.1327 N.pl3     1 <0>        -0.7055
     13 C9         -1.5927   -1.8845    0.2549 C.ar      1 <0>         0.2855
     14 C10        -0.5197   -2.7605    0.3629 C.ar      1 <0>        -0.1048
     15 C11        -0.7471   -4.1172    0.4835 C.ar      1 <0>        -0.0892
     16 C12        -2.0412   -4.6046    0.4970 C.ar      1 <0>        -0.1606
     17 C13        -3.1119   -3.7356    0.3893 C.ar      1 <0>        -0.0518
     18 C14        -2.8914   -2.3763    0.2745 C.ar      1 <0>        -0.1835
     19 I1         -5.0701   -4.4800    0.4089 I         1 <0>        -0.0808
     20 H1          0.9790    1.8848   -0.3497 H         1 <0>         0.0775
     21 H2         -0.6234    1.7427   -1.1117 H         1 <0>         0.0630
     22 H3         -0.4924    1.9830    0.6471 H         1 <0>         0.0498
     23 H4          2.5842    0.5956    0.4875 H         1 <0>         0.1464
     24 H5          3.8761    0.0567    2.5418 H         1 <0>         0.1276
     25 H6          2.7335   -1.1699    4.3781 H         1 <0>         0.1247
     26 H7          0.3711   -1.8103    4.1098 H         1 <0>         0.1461
     27 H8         -2.1132    0.1066    0.1481 H         1 <0>         0.3893
     28 H9          0.4913   -2.3807    0.3521 H         1 <0>         0.1133
     29 H10         0.0868   -4.7984    0.5671 H         1 <0>         0.1129
     30 H11        -2.2162   -5.6661    0.5915 H         1 <0>         0.1113
     31 H12        -3.7277   -1.6975    0.1956 H         1 <0>         0.1135
@<TRIPOS>BOND
     1    1    2 1
     2    1   20 1
     3    1   21 1
     4    1   22 1
     5    2    3 1
     6    2    9 1
     7    2   12 1
     8    3    8 ar
     9    3    4 ar
    10    4    5 ar
    11    4   23 1
    12    5    6 ar
    13    5   24 1
    14    6    7 ar
    15    6   25 1
    16    7    8 ar
    17    7   26 1
    18    9   10 2
    19    9   11 1
    20   12   13 1
    21   12   27 1
    22   13   18 ar
    23   13   14 ar
    24   14   15 ar
    25   14   28 1
    26   15   16 ar
    27   15   29 1
    28   16   17 ar
    29   16   30 1
    30   17   18 ar
    31   17   19 1
    32   18   31 1
@<TRIPOS>MOLECULE
ZINC51402861
   37    38     0     0     0
SMALL
USER_CHARGES

@<TRIPOS>ATOM
      1 C1         -0.0201    1.3728   -0.0542 C.ar      1 <0>        -0.1626
      2 C2          1.0868    1.9392   -0.6599 C.ar      1 <0>        -0.0702
      3 C3          2.2953    1.2712   -0.6561 C.ar      1 <0>        -0.1340
      4 C4          2.3987    0.0291   -0.0425 C.ar      1 <0>         0.2353
      5 C5          1.2854   -0.5366    0.5651 C.ar      1 <0>        -0.2452
      6 C6          0.0794    0.1367    0.5572 C.ar      1 <0>        -0.0564
      7 C7          1.3928   -1.8840    1.2314 C.3       1 <0>         0.5090
      8 F1          0.1504   -2.2398    1.7670 F         1 <0>        -0.1799
      9 F2          1.7854   -2.8404    0.2888 F         1 <0>        -0.1809
     10 F3          2.3425   -1.8228    2.2569 F         1 <0>        -0.1743
     11 N1          3.6209   -0.6502   -0.0373 N.pl3     1 <0>        -0.6734
     12 C8          4.7859    0.0443   -0.1483 C.2       1 <0>         0.5457
     13 O1          4.7704    1.3902   -0.1411 O.3       1 <0>        -0.6097
     14 C9          5.9989   -0.6401   -0.2697 C.2       1 <0>        -0.4438
     15 C10         6.0154   -2.0720   -0.2773 C.1       1 <0>         0.2936
     16 N2          6.0286   -3.2079   -0.2833 N.1       1 <0>        -0.5312
     17 C11         7.2051    0.0790   -0.3847 C.2       1 <0>         0.4204
     18 O2          7.1911    1.2939   -0.3782 O.2       1 <0>        -0.4976
     19 C12         8.5127   -0.6588   -0.5156 C.3       1 <0>        -0.1519
     20 C13         9.6585    0.3494   -0.6234 C.3       1 <0>        -0.0513
     21 C14        10.9660   -0.3884   -0.7544 C.2       1 <0>        -0.1118
     22 C15        11.6880   -0.7413    0.3703 C.2       1 <0>        -0.1455
     23 C16        12.8603   -1.4043    0.2176 C.2       1 <0>        -0.1774
     24 S1         12.9742   -1.5488   -1.5582 S.3       1 <0>         0.0013
     25 C17        11.4489   -0.7207   -1.9765 C.2       1 <0>        -0.1707
     26 H1         -0.9631    1.8991   -0.0550 H         1 <0>         0.1261
     27 H2          1.0058    2.9048   -1.1367 H         1 <0>         0.1288
     28 H3          3.1591    1.7137   -1.1298 H         1 <0>         0.1693
     29 H4         -0.7868   -0.3027    1.0296 H         1 <0>         0.1321
     30 H5          3.6384   -1.6165    0.0456 H         1 <0>         0.4029
     31 H6          8.6640   -1.2884    0.3612 H         1 <0>         0.0759
     32 H7          8.4908   -1.2810   -1.4103 H         1 <0>         0.0763
     33 H8          9.5072    0.9790   -1.5002 H         1 <0>         0.0759
     34 H9          9.6804    0.9716    0.2713 H         1 <0>         0.0751
     35 H10        11.3236   -0.4921    1.3560 H         1 <0>         0.1339
     36 H11        13.5474   -1.7541    0.9739 H         1 <0>         0.1822
     37 H12        11.0222   -0.5325   -2.9506 H         1 <0>         0.1839
@<TRIPOS>BOND
     1    1    6 ar
     2    1    2 ar
     3    1   26 1
     4    2    3 ar
     5    2   27 1
     6    3    4 ar
     7    3   28 1
     8    4    5 ar
     9    4   11 1
    10    5    6 ar
    11    5    7 1
    12    6   29 1
    13    7    8 1
    14    7    9 1
    15    7   10 1
    16   11   12 1
    17   11   30 1
    18   12   13 1
    19   12   14 2
    20   14   15 1
    21   14   17 1
    22   15   16 3
    23   17   18 2
    24   17   19 1
    25   19   20 1
    26   19   31 1
    27   19   32 1
    28   20   21 1
    29   20   33 1
    30   20   34 1
    31   21   25 2
    32   21   22 1
    33   22   23 2
    34   22   35 1
    35   23   24 1
    36   23   36 1
    37   24   25 1
    38   25   37 1
@<TRIPOS>MOLECULE
ZINC02853036
   32    33     0     0     0
SMALL
USER_CHARGES

@<TRIPOS>ATOM
      1 C1         -1.2931   -0.7744    0.0097 C.3       1 <0>        -0.1064
      2 C2          0.0021   -0.0041    0.0020 C.ar      1 <0>        -0.1429
      3 C3         -0.0166    1.3721    0.0096 C.ar      1 <0>        -0.0520
      4 C4          1.1855    2.0860    0.0019 C.ar      1 <0>        -0.1298
      5 C5          2.4033    1.3986   -0.0143 C.ar      1 <0>        -0.0450
      6 C6          2.4149    0.0228   -0.0213 C.ar      1 <0>        -0.1774
      7 C7          1.2159   -0.6851   -0.0132 C.ar      1 <0>         0.1397
      8 N1          1.2312   -2.0768   -0.0209 N.pl3     1 <0>        -0.6354
      9 C8          2.4243   -2.7482   -0.0358 C.2       1 <0>         0.2401
     10 C9          2.4391   -4.0975   -0.0432 C.2       1 <0>        -0.3861
     11 C10         3.6737   -4.7923   -0.0588 C.2       1 <0>         0.4825
     12 O1          4.7230   -4.1709   -0.0654 O.2       1 <0>        -0.4871
     13 C11         3.6898   -6.2604   -0.0668 C.2       1 <0>        -0.2301
     14 C12         4.7752   -7.1220   -0.0818 C.2       1 <0>        -0.0946
     15 C13         4.5049   -8.4683   -0.0857 C.2       1 <0>        -0.1756
     16 C14         3.2117   -8.8851   -0.0748 C.2       1 <0>        -0.2012
     17 S1          2.3173   -7.4002   -0.0519 S.3       1 <0>         0.1464
     18 C15         1.1693    3.5603    0.0095 C.2       1 <0>         0.4896
     19 O2          0.1104    4.1562    0.0224 O.co2     1 <0>        -0.6321
     20 H1         -1.6148   -0.9546   -1.0160 H         1 <0>         0.0674
     21 H2         -1.1458   -1.7278    0.5171 H         1 <0>         0.0541
     22 H3         -2.0556   -0.1980    0.5337 H         1 <0>         0.0724
     23 H4         -0.9588    1.9000    0.0169 H         1 <0>         0.1334
     24 H5          3.3337    1.9471   -0.0206 H         1 <0>         0.1379
     25 H6          3.3550   -0.5087   -0.0335 H         1 <0>         0.1249
     26 H7          0.3966   -2.5711   -0.0155 H         1 <0>         0.4101
     27 H8          3.3536   -2.1980   -0.0418 H         1 <0>         0.1628
     28 H9          1.5099   -4.6478   -0.0373 H         1 <0>         0.1218
     29 H10         5.7894   -6.7508   -0.0904 H         1 <0>         0.1443
     30 H11         5.3106   -9.1874   -0.0968 H         1 <0>         0.1353
     31 H12         2.8328   -9.8965   -0.0760 H         1 <0>         0.1864
     32 O3          2.3288    4.2469    0.0021 O.co2     1 <0>        -0.7535
@<TRIPOS>BOND
     1    1    2 1
     2    1   20 1
     3    1   21 1
     4    1   22 1
     5    2    7 ar
     6    2    3 ar
     7    3    4 ar
     8    3   23 1
     9    4    5 ar
    10    4   18 1
    11    5    6 ar
    12    5   24 1
    13    6    7 ar
    14    6   25 1
    15    7    8 1
    16    8    9 1
    17    8   26 1
    18    9   10 2
    19    9   27 1
    20   10   11 1
    21   10   28 1
    22   11   12 2
    23   11   13 1
    24   13   17 1
    25   13   14 2
    26   14   15 1
    27   14   29 1
    28   15   16 2
    29   15   30 1
    30   16   17 1
    31   16   31 1
    32   18   19 2
    33   18   32 1
@<TRIPOS>MOLECULE
ZINC36908976
   33    34     0     0     0
SMALL
USER_CHARGES

@<TRIPOS>ATOM
      1 C1         -0.0167    1.3796    0.0096 C.ar      1 <0>        -0.1313
      2 C2          1.1662    2.0887    0.0021 C.ar      1 <0>        -0.0847
      3 C3          2.3855    1.4066   -0.0131 C.ar      1 <0>        -0.1296
      4 C4          2.3967    0.0095   -0.0207 C.ar      1 <0>        -0.0847
      5 C5          1.2059   -0.6864   -0.0130 C.ar      1 <0>        -0.1312
      6 C6          0.0021   -0.0041    0.0020 C.ar      1 <0>        -0.1034
      7 C7         -1.2948   -0.7716    0.0107 C.3       1 <0>        -0.0818
      8 C8         -1.7479   -1.0236   -1.4287 C.3       1 <0>         0.1215
      9 N1         -3.0086   -1.7698   -1.4203 N.pl3     1 <0>        -0.7295
     10 C9         -3.6201   -2.1182   -2.6229 C.ar      1 <0>         0.2269
     11 C10        -3.0293   -1.7617   -3.8307 C.ar      1 <0>        -0.1798
     12 C11        -3.6302   -2.1045   -5.0211 C.ar      1 <0>        -0.0210
     13 C12        -4.8359   -2.8119   -5.0163 C.ar      1 <0>        -0.0768
     14 C13        -5.4284   -3.1694   -3.8014 C.ar      1 <0>        -0.0532
     15 C14        -4.8192   -2.8279   -2.6131 C.ar      1 <0>         0.0121
     16 F1         -5.3876   -3.1769   -1.4382 F         1 <0>        -0.1383
     17 C15        -5.4631   -3.1692   -6.2530 C.1       1 <0>         0.2644
     18 N2         -5.9607   -3.4527   -7.2342 N.1       1 <0>        -0.4295
     19 C16         3.6552    2.1581   -0.0217 C.2       1 <0>         0.5173
     20 O1          3.6420    3.3809   -0.0154 O.co2     1 <0>        -0.6866
     21 O2          4.7207    1.5581   -0.0350 O.co2     1 <0>        -0.6866
     22 H1         -0.9599    1.9055    0.0260 H         1 <0>         0.1133
     23 H2          1.1501    3.1686    0.0077 H         1 <0>         0.1264
     24 H3          3.3355   -0.5243   -0.0328 H         1 <0>         0.1264
     25 H4          1.2130   -1.7663   -0.0192 H         1 <0>         0.1133
     26 H5         -1.1491   -1.7253    0.5180 H         1 <0>         0.0751
     27 H6         -2.0556   -0.1936    0.5352 H         1 <0>         0.0751
     28 H7         -1.8936   -0.0700   -1.9360 H         1 <0>         0.0717
     29 H8         -0.9871   -1.6017   -1.9532 H         1 <0>         0.0717
     30 H9         -3.4177   -2.0213   -0.5775 H         1 <0>         0.4067
     31 H10        -2.0979   -1.2149   -3.8347 H         1 <0>         0.1447
     32 H11        -3.1705   -1.8268   -5.9581 H         1 <0>         0.1389
     33 H12        -6.3601   -3.7156   -3.7940 H         1 <0>         0.1424
@<TRIPOS>BOND
     1    1    6 ar
     2    1    2 ar
     3    1   22 1
     4    2    3 ar
     5    2   23 1
     6    3    4 ar
     7    3   19 1
     8    4    5 ar
     9    4   24 1
    10    5    6 ar
    11    5   25 1
    12    6    7 1
    13    7    8 1
    14    7   26 1
    15    7   27 1
    16    8    9 1
    17    8   28 1
    18    8   29 1
    19    9   10 1
    20    9   30 1
    21   10   15 ar
    22   10   11 ar
    23   11   12 ar
    24   11   31 1
    25   12   13 ar
    26   12   32 1
    27   13   14 ar
    28   13   17 1
    29   14   15 ar
    30   14   33 1
    31   15   16 1
    32   17   18 3
    33   19   20 2
    34   19   21 1
@<TRIPOS>MOLECULE
ZINC37962405
   33    34     0     0     0
SMALL
USER_CHARGES

@<TRIPOS>ATOM
      1 C1         -0.0173    1.4248    0.0099 C.3       1 <0>         0.0289
      2 O1          0.0021   -0.0041    0.0020 O.3       1 <0>        -0.3216
      3 C2          0.6258   -0.6184    1.0415 C.ar      1 <0>         0.1104
      4 C3          1.2022    0.1384    2.0513 C.ar      1 <0>        -0.2049
      5 C4          1.8353   -0.4884    3.1070 C.ar      1 <0>        -0.0693
      6 C5          1.8951   -1.8688    3.1577 C.ar      1 <0>        -0.0899
      7 C6          1.3218   -2.6253    2.1523 C.ar      1 <0>        -0.0708
      8 C7          0.6822   -2.0034    1.0976 C.ar      1 <0>        -0.1486
      9 C8          2.5867   -2.5500    4.3104 C.3       1 <0>         0.1158
     10 H1          3.2636   -1.8465    4.7950 H         1 <0>         0.0827
     11 C9          1.5580   -3.0234    5.3047 C.2       1 <0>         0.4929
     12 O2          1.0769   -4.1388    5.1999 O.co2     1 <0>        -0.6761
     13 O3          1.2067   -2.2910    6.2139 O.co2     1 <0>        -0.6902
     14 N1          3.3494   -3.6977    3.8130 N.pl3     1 <0>        -0.7051
     15 C10         4.4535   -4.1666    4.5298 C.ar      1 <0>         0.2464
     16 C11         4.8255   -3.5491    5.7171 C.ar      1 <0>        -0.1869
     17 C12         5.9168   -4.0149    6.4237 C.ar      1 <0>        -0.0573
     18 C13         6.6397   -5.0955    5.9498 C.ar      1 <0>        -0.1101
     19 C14         6.2714   -5.7126    4.7672 C.ar      1 <0>        -0.0606
     20 C15         5.1775   -5.2546    4.0594 C.ar      1 <0>        -0.1979
     21 Cl1         8.0117   -5.6777    6.8401 Cl        1 <0>        -0.0992
     22 H2          1.0053    1.8021    0.0021 H         1 <0>         0.0526
     23 H3         -0.5445    1.7859   -0.8732 H         1 <0>         0.0952
     24 H4         -0.5275    1.7763    0.9067 H         1 <0>         0.0539
     25 H5          1.1564    1.2167    2.0118 H         1 <0>         0.1252
     26 H6          2.2842    0.1003    3.8934 H         1 <0>         0.1261
     27 H7          1.3701   -3.7035    2.1940 H         1 <0>         0.1295
     28 H8          0.2307   -2.5948    0.3148 H         1 <0>         0.1277
     29 H9          3.0880   -4.1321    2.9860 H         1 <0>         0.3954
     30 H10         4.2621   -2.7053    6.0871 H         1 <0>         0.1320
     31 H11         6.2065   -3.5352    7.3469 H         1 <0>         0.1257
     32 H12         6.8374   -6.5558    4.3996 H         1 <0>         0.1244
     33 H13         4.8877   -5.7394    3.1388 H         1 <0>         0.1241
@<TRIPOS>BOND
     1    1    2 1
     2    1   22 1
     3    1   23 1
     4    1   24 1
     5    2    3 1
     6    3    8 ar
     7    3    4 ar
     8    4    5 ar
     9    4   25 1
    10    5    6 ar
    11    5   26 1
    12    6    7 ar
    13    6    9 1
    14    7    8 ar
    15    7   27 1
    16    8   28 1
    17    9   10 1
    18    9   11 1
    19    9   14 1
    20   11   12 2
    21   11   13 1
    22   14   15 1
    23   14   29 1
    24   15   20 ar
    25   15   16 ar
    26   16   17 ar
    27   16   30 1
    28   17   18 ar
    29   17   31 1
    30   18   19 ar
    31   18   21 1
    32   19   20 ar
    33   19   32 1
    34   20   33 1
@<TRIPOS>MOLECULE
ZINC50195765
   36    36     0     0     0
SMALL
USER_CHARGES

@<TRIPOS>ATOM
      1 C1         -0.0187    1.5258    0.0104 C.3       1 <0>        -0.1600
      2 C2          0.0021   -0.0041    0.0020 C.3       1 <0>         0.1692
      3 C3          0.7421   -0.5109    1.2415 C.3       1 <0>        -0.1600
      4 C4         -1.4333   -0.5336    0.0129 C.3       1 <0>        -0.0922
      5 C5         -2.1494   -0.0402    1.2717 C.3       1 <0>        -0.1800
      6 C6         -3.5633   -0.5619    1.2824 C.2       1 <0>         0.4891
      7 O1         -3.9612   -1.2632    0.3679 O.co2     1 <0>        -0.7003
      8 O2         -4.3091   -0.2825    2.2055 O.co2     1 <0>        -0.7066
      9 N1          0.6878   -0.4765   -1.2033 N.am      1 <0>        -0.7176
     10 C7          1.9715   -0.1323   -1.4270 C.2       1 <0>         0.5226
     11 O3          2.5590    0.5687   -0.6305 O.2       1 <0>        -0.5282
     12 C8          2.6769   -0.6183   -2.6669 C.3       1 <0>        -0.1194
     13 C9          4.0907   -0.0966   -2.6776 C.ar      1 <0>        -0.0426
     14 C10         4.3742    1.1219   -3.2677 C.ar      1 <0>        -0.0123
     15 C11         5.6724    1.6003   -3.2773 C.ar      1 <0>        -0.1061
     16 C12         6.6860    0.8606   -2.6977 C.ar      1 <0>        -0.0974
     17 C13         6.4034   -0.3570   -2.1079 C.ar      1 <0>        -0.1062
     18 C14         5.1045   -0.8336   -2.0923 C.ar      1 <0>        -0.0124
     19 Cl1         4.7484   -2.3593   -1.3446 Cl        1 <0>        -0.0531
     20 Cl2         3.1014    2.0505   -3.9967 Cl        1 <0>        -0.0531
     21 H1          1.0039    1.9031    0.0027 H         1 <0>         0.0707
     22 H2         -0.5459    1.8868   -0.8726 H         1 <0>         0.0502
     23 H3         -0.5289    1.8773    0.9072 H         1 <0>         0.0671
     24 H4          0.2319   -0.1594    2.1383 H         1 <0>         0.0670
     25 H5          0.7568   -1.6008    1.2356 H         1 <0>         0.0501
     26 H6          1.7647   -0.1336    1.2338 H         1 <0>         0.0707
     27 H7         -1.9605   -0.1726   -0.8702 H         1 <0>         0.0646
     28 H8         -1.4185   -1.6235    0.0069 H         1 <0>         0.0646
     29 H9         -1.6223   -0.4013    2.1547 H         1 <0>         0.0612
     30 H10        -2.1642    1.0497    1.2777 H         1 <0>         0.0613
     31 H11         0.2179   -1.0371   -1.8404 H         1 <0>         0.3990
     32 H12         2.6917   -1.7081   -2.6729 H         1 <0>         0.1100
     33 H13         2.1497   -0.2572   -3.5499 H         1 <0>         0.1100
     34 H14         5.8938    2.5517   -3.7380 H         1 <0>         0.1394
     35 H15         7.6994    1.2341   -2.7060 H         1 <0>         0.1411
     36 H16         7.1959   -0.9347   -1.6555 H         1 <0>         0.1394
@<TRIPOS>BOND
     1    1    2 1
     2    1   21 1
     3    1   22 1
     4    1   23 1
     5    2    3 1
     6    2    4 1
     7    2    9 1
     8    3   24 1
     9    3   25 1
    10    3   26 1
    11    4    5 1
    12    4   27 1
    13    4   28 1
    14    5    6 1
    15    5   29 1
    16    5   30 1
    17    6    7 2
    18    6    8 1
    19    9   10 am
    20    9   31 1
    21   10   11 2
    22   10   12 1
    23   12   13 1
    24   12   32 1
    25   12   33 1
    26   13   18 ar
    27   13   14 ar
    28   14   15 ar
    29   14   20 1
    30   15   16 ar
    31   15   34 1
    32   16   17 ar
    33   16   35 1
    34   17   18 ar
    35   17   36 1
    36   18   19 1
@<TRIPOS>MOLECULE
ZINC61093750
   36    36     0     0     0
SMALL
USER_CHARGES

@<TRIPOS>ATOM
      1 C1         -2.4275    1.2956    0.1915 C.3       1 <0>        -0.1513
      2 C2         -1.9678    0.0520    0.9551 C.3       1 <0>        -0.0924
      3 C3         -1.6724   -1.0751   -0.0365 C.3       1 <0>        -0.1171
      4 C4         -0.5694   -0.6313   -0.9994 C.3       1 <0>        -0.0986
      5 C5          0.6979   -0.3038   -0.2071 C.3       1 <0>        -0.1531
      6 C6         -1.2127   -2.3187    0.7271 C.3       1 <0>        -0.1084
      7 C7         -2.3402   -2.8234    1.5904 C.2       1 <0>         0.4998
      8 O1         -3.4257   -2.2839    1.5468 O.2       1 <0>        -0.4533
      9 N1         -2.1424   -3.8742    2.4109 N.am      1 <0>        -0.6789
     10 C8         -3.1656   -4.2933    3.2719 C.ar      1 <0>         0.1580
     11 C9         -4.4939   -4.1061    2.9155 C.ar      1 <0>        -0.1162
     12 C10        -5.5023   -4.5204    3.7667 C.ar      1 <0>         0.0894
     13 C11        -5.1868   -5.1220    4.9757 C.ar      1 <0>         0.0650
     14 C12        -3.8628   -5.3094    5.3329 C.ar      1 <0>        -0.1412
     15 C13        -2.8515   -4.9021    4.4815 C.ar      1 <0>         0.0774
     16 F1         -1.5594   -5.0908    4.8279 F         1 <0>        -0.1273
     17 F2         -6.1732   -5.5251    5.8063 F         1 <0>        -0.1252
     18 F3         -6.7954   -4.3385    3.4203 F         1 <0>        -0.1192
     19 C14        -2.9206   -1.3977   -0.8168 C.2       1 <0>         0.5115
     20 O2         -3.9836   -0.8892   -0.5039 O.co2     1 <0>        -0.6668
     21 O3         -2.8675   -2.1671   -1.7611 O.co2     1 <0>        -0.7126
     22 H1         -2.6379    2.0986    0.8979 H         1 <0>         0.0306
     23 H2         -1.6417    1.6118   -0.4945 H         1 <0>         0.0360
     24 H3         -3.3303    1.0623   -0.3730 H         1 <0>         0.0862
     25 H4         -1.0650    0.2853    1.5195 H         1 <0>         0.0314
     26 H5         -2.7536   -0.2643    1.6411 H         1 <0>         0.0711
     27 H6         -0.3589   -1.4342   -1.7058 H         1 <0>         0.0627
     28 H7         -0.8968    0.2547   -1.5434 H         1 <0>         0.0598
     29 H8          0.4874    0.4992    0.4993 H         1 <0>         0.0533
     30 H9          1.0254   -1.1897    0.3369 H         1 <0>         0.0482
     31 H10         1.4837    0.0124   -0.8931 H         1 <0>         0.0439
     32 H11        -0.9230   -3.0941    0.0180 H         1 <0>         0.0960
     33 H12        -0.3595   -2.0643    1.3560 H         1 <0>         0.0832
     34 H13        -1.2918   -4.3404    2.4054 H         1 <0>         0.4132
     35 H14        -4.7399   -3.6370    1.9743 H         1 <0>         0.1855
     36 H15        -3.6191   -5.7778    6.2750 H         1 <0>         0.1593
@<TRIPOS>BOND
     1    1    2 1
     2    1   22 1
     3    1   23 1
     4    1   24 1
     5    2    3 1
     6    2   25 1
     7    2   26 1
     8    3    4 1
     9    3    6 1
    10    3   19 1
    11    4    5 1
    12    4   27 1
    13    4   28 1
    14    5   29 1
    15    5   30 1
    16    5   31 1
    17    6    7 1
    18    6   32 1
    19    6   33 1
    20    7    8 2
    21    7    9 am
    22    9   10 1
    23    9   34 1
    24   10   15 ar
    25   10   11 ar
    26   11   12 ar
    27   11   35 1
    28   12   13 ar
    29   12   18 1
    30   13   14 ar
    31   13   17 1
    32   14   15 ar
    33   14   36 1
    34   15   16 1
    35   19   20 2
    36   19   21 1
@<TRIPOS>MOLECULE
ZINC02577313
   44    44     0     0     0
SMALL
USER_CHARGES
11-(2-pyridylsulfanyl)undecanoic acid
@<TRIPOS>ATOM
      1 C1         -1.2209    1.7609    0.0174 C.ar      1 <0>        -0.0583
      2 C2         -0.0126    1.0758    0.0080 C.ar      1 <0>        -0.1824
      3 C3          1.1692    1.7890    0.0005 C.ar      1 <0>         0.1149
      4 N1          1.1635    3.1086    0.0073 N.ar      1 <0>        -0.4922
      5 C4          0.0326    3.7980    0.0218 C.ar      1 <0>         0.1231
      6 C5         -1.1958    3.1433    0.0304 C.ar      1 <0>        -0.1528
      7 S1          0.0836    5.5593    0.0308 S.3       1 <0>        -0.0844
      8 C6          1.8556    5.9471    0.0160 C.3       1 <0>        -0.0908
      9 C7          2.0455    7.4652    0.0224 C.3       1 <0>        -0.1069
     10 C8          3.5400    7.7923    0.0098 C.3       1 <0>        -0.1130
     11 C9          3.7299    9.3105    0.0162 C.3       1 <0>        -0.1191
     12 C10         5.2245    9.6376    0.0037 C.3       1 <0>        -0.1204
     13 C11         5.4144   11.1558    0.0101 C.3       1 <0>        -0.1193
     14 C12         6.9089   11.4829   -0.0024 C.3       1 <0>        -0.1195
     15 C13         7.0988   13.0010    0.0040 C.3       1 <0>        -0.1199
     16 C14         8.5934   13.3281   -0.0085 C.3       1 <0>        -0.0990
     17 C15         8.7833   14.8463   -0.0022 C.3       1 <0>        -0.1583
     18 C16        10.2554   15.1685   -0.0145 C.2       1 <0>         0.4568
     19 O1         11.0692   14.2754   -0.0271 O.co2     1 <0>        -0.6427
     20 H1         -2.1590    1.2257    0.0189 H         1 <0>         0.1397
     21 H2          0.0021   -0.0041    0.0020 H         1 <0>         0.1374
     22 H3          2.1108    1.2601   -0.0114 H         1 <0>         0.1590
     23 H4         -2.1167    3.7075    0.0419 H         1 <0>         0.1394
     24 H5          2.3288    5.5180    0.8992 H         1 <0>         0.0909
     25 H6          2.3118    5.5276   -0.8807 H         1 <0>         0.0909
     26 H7          1.5722    7.8943   -0.8608 H         1 <0>         0.0721
     27 H8          1.5892    7.8847    0.9190 H         1 <0>         0.0721
     28 H9          4.0133    7.3633    0.8930 H         1 <0>         0.0648
     29 H10         3.9963    7.3729   -0.8868 H         1 <0>         0.0648
     30 H11         3.2567    9.7396   -0.8670 H         1 <0>         0.0619
     31 H12         3.2737    9.7300    0.9129 H         1 <0>         0.0619
     32 H13         5.6977    9.2085    0.8869 H         1 <0>         0.0608
     33 H14         5.6807    9.2181   -0.8929 H         1 <0>         0.0608
     34 H15         4.9411   11.5848   -0.8731 H         1 <0>         0.0591
     35 H16         4.9581   11.5752    0.9068 H         1 <0>         0.0591
     36 H17         7.3822   11.0538    0.8808 H         1 <0>         0.0596
     37 H18         7.3652   11.0634   -0.8991 H         1 <0>         0.0596
     38 H19         6.6256   13.4301   -0.8792 H         1 <0>         0.0554
     39 H20         6.6426   13.4205    0.9006 H         1 <0>         0.0554
     40 H21         9.0666   12.8991    0.8747 H         1 <0>         0.0583
     41 H22         9.0496   12.9087   -0.9052 H         1 <0>         0.0583
     42 H23         8.3100   15.2754   -0.8854 H         1 <0>         0.0612
     43 H24         8.3270   15.2657    0.8945 H         1 <0>         0.0612
     44 O2         10.6625   16.4475   -0.0115 O.co2     1 <0>        -0.7800
@<TRIPOS>BOND
     1    1    6 ar
     2    1    2 ar
     3    1   20 1
     4    2    3 ar
     5    2   21 1
     6    3    4 ar
     7    3   22 1
     8    4    5 ar
     9    5    6 ar
    10    5    7 1
    11    6   23 1
    12    7    8 1
    13    8    9 1
    14    8   24 1
    15    8   25 1
    16    9   10 1
    17    9   26 1
    18    9   27 1
    19   10   11 1
    20   10   28 1
    21   10   29 1
    22   11   12 1
    23   11   30 1
    24   11   31 1
    25   12   13 1
    26   12   32 1
    27   12   33 1
    28   13   14 1
    29   13   34 1
    30   13   35 1
    31   14   15 1
    32   14   36 1
    33   14   37 1
    34   15   16 1
    35   15   38 1
    36   15   39 1
    37   16   17 1
    38   16   40 1
    39   16   41 1
    40   17   18 1
    41   17   42 1
    42   17   43 1
    43   18   19 2
    44   18   44 1
@<TRIPOS>MOLECULE
ZINC11864170
   50    51     0     0     0
SMALL
USER_CHARGES
3-[4-[2-(4-isopropyl-3-methyl-phenoxy)ethoxy]phenyl]propanoic acid
@<TRIPOS>ATOM
      1 C1         -3.7289    1.9938   12.0404 C.3       1 <0>        -0.1178
      2 C2         -3.9157    2.9471   10.8882 C.ar      1 <0>        -0.0446
      3 C3         -3.3952    2.6388    9.6460 C.ar      1 <0>        -0.1504
      4 C4         -3.5679    3.5164    8.5858 C.ar      1 <0>         0.1331
      5 C5         -4.2582    4.7048    8.7773 C.ar      1 <0>        -0.2136
      6 C6         -4.7818    5.0054   10.0195 C.ar      1 <0>        -0.0710
      7 C7         -4.6080    4.1290   11.0750 C.ar      1 <0>        -0.1175
      8 C8         -5.1745    4.4627   12.4310 C.3       1 <0>        -0.0572
      9 C9         -4.6726    5.8403   12.8685 C.3       1 <0>        -0.1443
     10 C10        -6.7026    4.4769   12.3558 C.3       1 <0>        -0.1442
     11 O1         -3.0570    3.2155    7.3630 O.3       1 <0>        -0.3061
     12 C11        -3.2732    4.1657    6.3178 C.3       1 <0>         0.0631
     13 C12        -2.6306    3.6576    5.0256 C.3       1 <0>         0.0618
     14 O2         -3.2965    2.4676    4.5984 O.3       1 <0>        -0.3113
     15 C13        -2.8450    1.8838    3.4572 C.ar      1 <0>         0.1100
     16 C14        -3.4455    0.7259    2.9846 C.ar      1 <0>        -0.1467
     17 C15        -2.9850    0.1346    1.8241 C.ar      1 <0>        -0.0805
     18 C16        -1.9266    0.6959    1.1337 C.ar      1 <0>        -0.0984
     19 C17        -1.3229    1.8467    1.6057 C.ar      1 <0>        -0.0810
     20 C18        -1.7833    2.4450    2.7627 C.ar      1 <0>        -0.2059
     21 C19        -1.4263    0.0488   -0.1320 C.3       1 <0>        -0.0618
     22 C20        -2.1815    0.6241   -1.3318 C.3       1 <0>        -0.1499
     23 C21        -1.6812   -0.0230   -2.5975 C.2       1 <0>         0.4584
     24 O3         -0.8100   -0.8586   -2.5453 O.co2     1 <0>        -0.6414
     25 H1         -2.8617    2.2979   12.6266 H         1 <0>         0.0727
     26 H2         -4.6174    2.0083   12.6716 H         1 <0>         0.0719
     27 H3         -3.5724    0.9858   11.6563 H         1 <0>         0.0683
     28 H4         -2.8542    1.7155    9.5007 H         1 <0>         0.1302
     29 H5         -4.3898    5.3919    7.9545 H         1 <0>         0.1262
     30 H6         -5.3234    5.9280   10.1679 H         1 <0>         0.1227
     31 H7         -4.8532    3.7126   13.1536 H         1 <0>         0.0817
     32 H8         -5.0824    6.0816   13.8493 H         1 <0>         0.0563
     33 H9         -3.5840    5.8302   12.9220 H         1 <0>         0.0551
     34 H10        -4.9939    6.5904   12.1458 H         1 <0>         0.0553
     35 H11        -7.0602    3.4955   12.0441 H         1 <0>         0.0555
     36 H12        -7.1124    4.7182   13.3366 H         1 <0>         0.0563
     37 H13        -7.0239    5.2270   11.6332 H         1 <0>         0.0552
     38 H14        -2.8252    5.1197    6.5957 H         1 <0>         0.0831
     39 H15        -4.3440    4.2985    6.1632 H         1 <0>         0.0744
     40 H16        -1.5775    3.4404    5.2045 H         1 <0>         0.0732
     41 H17        -2.7178    4.4205    4.2520 H         1 <0>         0.0843
     42 H18        -4.2720    0.2869    3.5236 H         1 <0>         0.1264
     43 H19        -3.4523   -0.7666    1.4555 H         1 <0>         0.1293
     44 H20        -0.4932    2.2806    1.0673 H         1 <0>         0.1245
     45 H21        -1.3142    3.3464    3.1286 H         1 <0>         0.1224
     46 H22        -1.5924   -1.0272   -0.0801 H         1 <0>         0.0714
     47 H23        -0.3604    0.2469   -0.2445 H         1 <0>         0.0706
     48 H24        -3.2474    0.4260   -1.2193 H         1 <0>         0.0640
     49 H25        -2.0154    1.7001   -1.3837 H         1 <0>         0.0631
     50 O4         -2.2034    0.3289   -3.7830 O.co2     1 <0>        -0.7766
@<TRIPOS>BOND
     1    1    2 1
     2    1   25 1
     3    1   26 1
     4    1   27 1
     5    2    7 ar
     6    2    3 ar
     7    3    4 ar
     8    3   28 1
     9    4    5 ar
    10    4   11 1
    11    5    6 ar
    12    5   29 1
    13    6    7 ar
    14    6   30 1
    15    7    8 1
    16    8    9 1
    17    8   10 1
    18    8   31 1
    19    9   32 1
    20    9   33 1
    21    9   34 1
    22   10   35 1
    23   10   36 1
    24   10   37 1
    25   11   12 1
    26   12   13 1
    27   12   38 1
    28   12   39 1
    29   13   14 1
    30   13   40 1
    31   13   41 1
    32   14   15 1
    33   15   20 ar
    34   15   16 ar
    35   16   17 ar
    36   16   42 1
    37   17   18 ar
    38   17   43 1
    39   18   19 ar
    40   18   21 1
    41   19   20 ar
    42   19   44 1
    43   20   45 1
    44   21   22 1
    45   21   46 1
    46   21   47 1
    47   22   23 1
    48   22   48 1
    49   22   49 1
    50   23   24 2
    51   23   50 1
@<TRIPOS>MOLECULE
ZINC04898491
   45    45     0     0     0
SMALL
USER_CHARGES
N,N-diethyl-2-(5-ethyl-4-hydroxy-6-propyl-pyrimidin-2-yl)sulfanyl-acetamide
@<TRIPOS>ATOM
      1 C1          3.7753    2.7047    1.9326 C.3       1 <0>        -0.1489
      2 C2          2.4850    3.2013    1.2774 C.3       1 <0>        -0.1156
      3 C3          1.3787    3.2881    2.3308 C.3       1 <0>        -0.0627
      4 C4          0.0965    3.7347    1.6770 C.ar      1 <0>         0.1787
      5 C5         -0.7976    2.8030    1.1831 C.ar      1 <0>        -0.2953
      6 C6         -1.9772    3.2585    0.5961 C.ar      1 <0>         0.4487
      7 N1         -2.2001    4.5651    0.5259 N.ar      1 <0>        -0.6172
      8 C7         -1.3160    5.4278    1.0059 C.ar      1 <0>         0.3121
      9 N2         -0.1862    5.0239    1.5692 N.ar      1 <0>        -0.5823
     10 S1         -1.6507    7.1540    0.8925 S.3       1 <0>         0.0186
     11 C8         -3.2615    7.1084    0.0686 C.3       1 <0>        -0.1372
     12 C9         -3.7596    8.5156   -0.1389 C.2       1 <0>         0.5347
     13 O1         -3.0913    9.4566    0.2336 O.2       1 <0>        -0.5273
     14 N3         -4.9478    8.7283   -0.7384 N.am      1 <0>        -0.6113
     15 C10        -5.7552    7.5917   -1.1884 C.3       1 <0>         0.0991
     16 C11        -6.6919    7.1533   -0.0609 C.3       1 <0>        -0.1729
     17 C12        -5.4320   10.0962   -0.9402 C.3       1 <0>         0.1111
     18 C13        -4.9450   10.6151   -2.2946 C.3       1 <0>        -0.1690
     19 O2         -2.8839    2.3795    0.1045 O.3       1 <0>        -0.6982
     20 C14        -0.5035    1.3280    1.2772 C.3       1 <0>        -0.0441
     21 C15        -1.0811    0.7750    2.5816 C.3       1 <0>        -0.1375
     22 H1          4.5706    2.6423    1.1753 H         1 <0>         0.0505
     23 H2          3.6054    1.7092    2.3688 H         1 <0>         0.0521
     24 H3          4.0775    3.4054    2.7249 H         1 <0>         0.0529
     25 H4          2.6549    4.1968    0.8413 H         1 <0>         0.0641
     26 H5          2.1828    2.5006    0.4851 H         1 <0>         0.0610
     27 H6          1.2312    2.2995    2.7899 H         1 <0>         0.0743
     28 H7          1.6668    4.0132    3.1063 H         1 <0>         0.0719
     29 H8         -3.9775    6.5545    0.6935 H         1 <0>         0.1207
     30 H9         -3.1611    6.6076   -0.9056 H         1 <0>         0.1201
     31 H10        -6.3501    7.8886   -2.0647 H         1 <0>         0.0796
     32 H11        -5.0931    6.7565   -1.4606 H         1 <0>         0.0887
     33 H12        -7.2981    6.2998   -0.3988 H         1 <0>         0.0705
     34 H13        -7.3540    7.9884    0.2113 H         1 <0>         0.0556
     35 H14        -6.0970    6.8564    0.8155 H         1 <0>         0.0618
     36 H15        -6.5318   10.1027   -0.9189 H         1 <0>         0.0752
     37 H16        -5.0460   10.7437   -0.1391 H         1 <0>         0.0840
     38 H17        -5.3086   11.6422   -2.4460 H         1 <0>         0.0641
     39 H18        -5.3311    9.9676   -3.0957 H         1 <0>         0.0550
     40 H19        -3.8453   10.6086   -2.3158 H         1 <0>         0.0611
     41 H20         0.5849    1.1694    1.2619 H         1 <0>         0.0500
     42 H21        -0.9620    0.8075    0.4234 H         1 <0>         0.0646
     43 H22        -0.8664   -0.3017    2.6502 H         1 <0>         0.0423
     44 H23        -2.1695    0.9336    2.5969 H         1 <0>         0.0538
     45 H24        -0.6226    1.2955    3.4353 H         1 <0>         0.0429
@<TRIPOS>BOND
     1    1    2 1
     2    1   22 1
     3    1   23 1
     4    1   24 1
     5    2    3 1
     6    2   25 1
     7    2   26 1
     8    3   27 1
     9    3   28 1
    10    3    4 1
    11    4    5 ar
    12    4    9 ar
    13    5    6 ar
    14    5   20 1
    15    6    7 ar
    16    6   19 1
    17    7    8 ar
    18    8    9 ar
    19    8   10 1
    20   10   11 1
    21   11   12 1
    22   11   29 1
    23   11   30 1
    24   12   13 2
    25   12   14 am
    26   14   15 1
    27   14   17 1
    28   15   16 1
    29   15   31 1
    30   15   32 1
    31   16   33 1
    32   16   34 1
    33   16   35 1
    34   17   18 1
    35   17   36 1
    36   17   37 1
    37   18   38 1
    38   18   39 1
    39   18   40 1
    40   20   21 1
    41   20   41 1
    42   20   42 1
    43   21   43 1
    44   21   44 1
    45   21   45 1
@<TRIPOS>MOLECULE
ZINC41567521
   44    45     0     0     0
SMALL
USER_CHARGES

@<TRIPOS>ATOM
      1 C1         -0.0187    1.5258    0.0104 C.3       1 <0>        -0.1449
      2 C2          0.0021   -0.0041    0.0020 C.3       1 <0>        -0.0528
      3 C3          0.7421   -0.5109    1.2415 C.3       1 <0>        -0.1448
      4 C4         -1.4117   -0.5257    0.0127 C.ar      1 <0>        -0.1168
      5 C5         -2.2583   -0.2035    1.0573 C.ar      1 <0>        -0.0758
      6 C6         -3.5547   -0.6808    1.0697 C.ar      1 <0>        -0.1500
      7 C7         -4.0069   -1.4836    0.0326 C.ar      1 <0>         0.1283
      8 C8         -3.1556   -1.8051   -1.0146 C.ar      1 <0>        -0.2060
      9 C9         -1.8618   -1.3210   -1.0249 C.ar      1 <0>        -0.0771
     10 O1         -5.2816   -1.9547    0.0427 O.3       1 <0>        -0.3128
     11 C10        -5.6786   -2.7755   -1.0576 C.3       1 <0>         0.0645
     12 C11        -7.1346   -3.2075   -0.8724 C.3       1 <0>        -0.1183
     13 C12        -7.5597   -4.0863   -2.0505 C.3       1 <0>         0.0654
     14 O2         -8.9196   -4.4898   -1.8774 O.3       1 <0>        -0.3168
     15 C13        -9.4553   -5.2795   -2.8418 C.ar      1 <0>         0.1126
     16 C14        -8.6822   -5.6631   -3.9322 C.ar      1 <0>        -0.2241
     17 C15        -9.2214   -6.4637   -4.9132 C.ar      1 <0>        -0.0481
     18 C16       -10.5494   -6.8920   -4.8119 C.ar      1 <0>        -0.1668
     19 C17       -11.3233   -6.5039   -3.7129 C.ar      1 <0>        -0.0479
     20 C18       -10.7739   -5.7074   -2.7341 C.ar      1 <0>        -0.1665
     21 C19       -11.1310   -7.7482   -5.8590 C.2       1 <0>         0.5217
     22 O3        -10.4528   -8.0861   -6.8195 O.co2     1 <0>        -0.6905
     23 O4        -12.2925   -8.1217   -5.7687 O.co2     1 <0>        -0.6893
     24 H1          1.0039    1.9031    0.0027 H         1 <0>         0.0567
     25 H2         -0.5459    1.8868   -0.8726 H         1 <0>         0.0557
     26 H3         -0.5289    1.8773    0.9072 H         1 <0>         0.0562
     27 H4          0.5123   -0.3556   -0.8948 H         1 <0>         0.0757
     28 H5          0.2319   -0.1594    2.1383 H         1 <0>         0.0562
     29 H6          0.7568   -1.6008    1.2356 H         1 <0>         0.0557
     30 H7          1.7647   -0.1336    1.2338 H         1 <0>         0.0567
     31 H8         -1.9058    0.4215    1.8644 H         1 <0>         0.1269
     32 H9         -4.2154   -0.4294    1.8862 H         1 <0>         0.1301
     33 H10        -3.5054   -2.4299   -1.8231 H         1 <0>         0.1285
     34 H11        -1.2000   -1.5674   -1.8421 H         1 <0>         0.1235
     35 H12        -5.5823   -2.2112   -1.9852 H         1 <0>         0.0666
     36 H13        -5.0405   -3.6581   -1.1014 H         1 <0>         0.0667
     37 H14        -7.2310   -3.7718    0.0552 H         1 <0>         0.0853
     38 H15        -7.7728   -2.3249   -0.8286 H         1 <0>         0.0853
     39 H16        -7.4634   -3.5220   -2.9780 H         1 <0>         0.0633
     40 H17        -6.9216   -4.9689   -2.0942 H         1 <0>         0.0633
     41 H18        -7.6571   -5.3319   -4.0095 H         1 <0>         0.1184
     42 H19        -8.6205   -6.7605   -5.7600 H         1 <0>         0.1289
     43 H20       -12.3489   -6.8322   -3.6306 H         1 <0>         0.1342
     44 H21       -11.3693   -5.4106   -1.8833 H         1 <0>         0.1230
@<TRIPOS>BOND
     1    1    2 1
     2    1   24 1
     3    1   25 1
     4    1   26 1
     5    2    3 1
     6    2    4 1
     7    2   27 1
     8    3   28 1
     9    3   29 1
    10    3   30 1
    11    4    9 ar
    12    4    5 ar
    13    5    6 ar
    14    5   31 1
    15    6    7 ar
    16    6   32 1
    17    7    8 ar
    18    7   10 1
    19    8    9 ar
    20    8   33 1
    21    9   34 1
    22   10   11 1
    23   11   12 1
    24   11   35 1
    25   11   36 1
    26   12   13 1
    27   12   37 1
    28   12   38 1
    29   13   14 1
    30   13   39 1
    31   13   40 1
    32   14   15 1
    33   15   20 ar
    34   15   16 ar
    35   16   17 ar
    36   16   41 1
    37   17   18 ar
    38   17   42 1
    39   18   19 ar
    40   18   21 1
    41   19   20 ar
    42   19   43 1
    43   20   44 1
    44   21   22 2
    45   21   23 1
@<TRIPOS>MOLECULE
ZINC49311966
   34    34     0     0     0
SMALL
USER_CHARGES

@<TRIPOS>ATOM
      1 C1         -0.0184    1.5028    0.0103 C.3       1 <0>        -0.1013
      2 C2          0.0021   -0.0041    0.0020 C.ar      1 <0>        -0.1303
      3 C3          0.0058   -0.6869   -1.1981 C.ar      1 <0>        -0.1183
      4 C4          0.0245   -2.0722   -1.2173 C.ar      1 <0>        -0.1428
      5 C5          0.0397   -2.7839   -0.0379 C.ar      1 <0>        -0.0808
      6 C6          0.0366   -2.1061    1.1853 C.ar      1 <0>        -0.1510
      7 C7          0.0229   -0.7028    1.1997 C.ar      1 <0>         0.1258
      8 O1          0.0250   -0.0335    2.3791 O.3       1 <0>        -0.3066
      9 C8         -1.2471    0.2693    2.9554 C.3       1 <0>         0.0908
     10 C9         -1.0443    1.0207    4.2726 C.3       1 <0>        -0.1134
     11 C10        -2.4063    1.3450    4.8896 C.3       1 <0>         0.0711
     12 O2         -2.2169    2.0468    6.1200 O.3       1 <0>        -0.3702
     13 C11        -3.4337    2.3991    6.7814 C.3       1 <0>         0.0179
     14 C12        -3.1118    3.1419    8.0797 C.3       1 <0>         0.4613
     15 F1         -2.3879    4.3024    7.7857 F         1 <0>        -0.1766
     16 F2         -4.3030    3.4868    8.7272 F         1 <0>        -0.1796
     17 F3         -2.3502    2.3158    8.9131 F         1 <0>        -0.1738
     18 C13         0.0523   -2.8595    2.4494 C.2       1 <0>         0.5187
     19 O3          0.0681   -4.0827    2.4323 O.co2     1 <0>        -0.6926
     20 O4          0.0496   -2.2627    3.5173 O.co2     1 <0>        -0.6662
     21 H1          1.0042    1.8801    0.0026 H         1 <0>         0.0653
     22 H2         -0.5455    1.8639   -0.8728 H         1 <0>         0.0579
     23 H3         -0.5286    1.8543    0.9071 H         1 <0>         0.0631
     24 H4         -0.0064   -0.1376   -2.1279 H         1 <0>         0.1155
     25 H5          0.0269   -2.5966   -2.1614 H         1 <0>         0.1159
     26 H6          0.0535   -3.8637   -0.0580 H         1 <0>         0.1284
     27 H7         -1.8191    0.8911    2.2667 H         1 <0>         0.0349
     28 H8         -1.7898   -0.6567    3.1451 H         1 <0>         0.0602
     29 H9         -0.4722    0.3989    4.9613 H         1 <0>         0.0929
     30 H10        -0.5016    1.9468    4.0829 H         1 <0>         0.0743
     31 H11        -2.9784    1.9668    4.2010 H         1 <0>         0.0555
     32 H12        -2.9490    0.4190    5.0794 H         1 <0>         0.0623
     33 H13        -4.0271    3.0427    6.1320 H         1 <0>         0.0947
     34 H14        -3.9977    1.4949    7.0104 H         1 <0>         0.0969
@<TRIPOS>BOND
     1    1    2 1
     2    1   21 1
     3    1   22 1
     4    1   23 1
     5    2    7 ar
     6    2    3 ar
     7    3    4 ar
     8    3   24 1
     9    4    5 ar
    10    4   25 1
    11    5    6 ar
    12    5   26 1
    13    6    7 ar
    14    6   18 1
    15    7    8 1
    16    8    9 1
    17    9   10 1
    18    9   27 1
    19    9   28 1
    20   10   11 1
    21   10   29 1
    22   10   30 1
    23   11   12 1
    24   11   31 1
    25   11   32 1
    26   12   13 1
    27   13   14 1
    28   13   33 1
    29   13   34 1
    30   14   15 1
    31   14   16 1
    32   14   17 1
    33   18   19 2
    34   18   20 1
@<TRIPOS>MOLECULE
ZINC63235403
   45    46     0     0     0
SMALL
USER_CHARGES

@<TRIPOS>ATOM
      1 C1         -0.0184    1.5028    0.0103 C.3       1 <0>        -0.1160
      2 C2          0.0021   -0.0041    0.0020 C.ar      1 <0>        -0.0531
      3 C3          0.0057   -0.6883   -1.1997 C.ar      1 <0>        -0.1606
      4 C4          0.0244   -2.0706   -1.2107 C.ar      1 <0>        -0.0817
      5 C5          0.0391   -2.7719   -0.0203 C.ar      1 <0>        -0.1274
      6 C6          0.0355   -2.0879    1.1864 C.ar      1 <0>         0.1383
      7 C7          0.0229   -0.7004    1.1947 C.ar      1 <0>        -0.2071
      8 O1          0.0500   -2.7755    2.3585 O.3       1 <0>        -0.3116
      9 C8          0.0452   -2.0055    3.5624 C.3       1 <0>         0.0594
     10 C9          0.0632   -2.9458    4.7692 C.3       1 <0>        -0.1152
     11 C10         0.0581   -2.1215    6.0581 C.3       1 <0>        -0.1012
     12 C11         0.0761   -3.0618    7.2650 C.3       1 <0>        -0.1255
     13 C12         0.0710   -2.2498    8.5345 C.2       1 <0>         0.3470
     14 O2          1.2269   -1.7869    9.0407 O.3       1 <0>        -0.6108
     15 C13        -1.1063   -1.9848    9.1698 C.2       1 <0>        -0.4197
     16 C14        -2.3377   -2.4780    8.6304 C.1       1 <0>         0.3072
     17 N1         -3.3146   -2.8693    8.2026 N.1       1 <0>        -0.5272
     18 C15        -1.1112   -1.1921   10.4091 C.2       1 <0>         0.4820
     19 O3         -0.0636   -0.7725   10.8679 O.2       1 <0>        -0.4609
     20 C16        -2.3774   -0.9071   11.0923 C.2       1 <0>        -0.0543
     21 C17        -2.5243   -0.1827   12.2415 C.2       1 <0>        -0.1684
     22 C18        -3.8968   -0.1635   12.5336 C.2       1 <0>        -0.2273
     23 C19        -4.5201   -0.8678   11.5627 C.2       1 <0>        -0.0380
     24 O4         -3.6016   -1.3092   10.6931 O.3       1 <0>        -0.1483
     25 C20         0.0585   -4.2788   -0.0330 C.3       1 <0>        -0.1039
     26 H1          1.0042    1.8801    0.0026 H         1 <0>         0.0715
     27 H2         -0.5455    1.8639   -0.8728 H         1 <0>         0.0667
     28 H3         -0.5286    1.8543    0.9071 H         1 <0>         0.0669
     29 H4         -0.0065   -0.1419   -2.1312 H         1 <0>         0.1205
     30 H5          0.0272   -2.6027   -2.1505 H         1 <0>         0.1260
     31 H6          0.0248   -0.1655    2.1329 H         1 <0>         0.1291
     32 H7          0.9269   -1.3651    3.5876 H         1 <0>         0.0633
     33 H8         -0.8529   -1.3888    3.5957 H         1 <0>         0.0624
     34 H9         -0.8185   -3.5862    4.7440 H         1 <0>         0.0725
     35 H10         0.9613   -3.5626    4.7359 H         1 <0>         0.0737
     36 H11         0.9398   -1.4811    6.0833 H         1 <0>         0.0705
     37 H12        -0.8400   -1.5047    6.0914 H         1 <0>         0.0653
     38 H13        -0.8056   -3.7022    7.2398 H         1 <0>         0.0674
     39 H14         0.9742   -3.6785    7.2317 H         1 <0>         0.0747
     40 H15        -1.7369    0.2846   12.8142 H         1 <0>         0.1520
     41 H16        -4.3667    0.3221   13.3760 H         1 <0>         0.1461
     42 H17        -5.5839   -1.0420   11.4964 H         1 <0>         0.1975
     43 H18         1.0908   -4.6288   -0.0409 H         1 <0>         0.0660
     44 H19        -0.4463   -4.6561    0.8563 H         1 <0>         0.0705
     45 H20        -0.4549   -4.6412   -0.9236 H         1 <0>         0.0618
@<TRIPOS>BOND
     1    1    2 1
     2    1   26 1
     3    1   27 1
     4    1   28 1
     5    2    7 ar
     6    2    3 ar
     7    3    4 ar
     8    3   29 1
     9    4    5 ar
    10    4   30 1
    11    5    6 ar
    12    5   25 1
    13    6    7 ar
    14    6    8 1
    15    7   31 1
    16    8    9 1
    17    9   10 1
    18    9   32 1
    19    9   33 1
    20   10   11 1
    21   10   34 1
    22   10   35 1
    23   11   12 1
    24   11   36 1
    25   11   37 1
    26   12   13 1
    27   12   38 1
    28   12   39 1
    29   13   14 1
    30   13   15 2
    31   15   16 1
    32   15   18 1
    33   16   17 3
    34   18   19 2
    35   18   20 1
    36   20   24 1
    37   20   21 2
    38   21   22 1
    39   21   40 1
    40   22   23 2
    41   22   41 1
    42   23   24 1
    43   23   42 1
    44   25   43 1
    45   25   44 1
    46   25   45 1
@<TRIPOS>MOLECULE
ZINC13013299
   49    50     0     0     0
SMALL
USER_CHARGES
(2S)-2-[[4-[N-[[2-(3-fluorophenoxy)acetyl]amino]-C-methyl-carbonimidoyl]phenyl]sulfonylamino]propanoic acid
@<TRIPOS>ATOM
      1 C1          0.5222    3.6385   -1.2327 C.3       1 <0>        -0.1486
      2 C2          1.2350    3.0943    0.0069 C.3       1 <0>         0.1057
      3 H1          0.7441    3.4725    0.9036 H         1 <0>         0.0812
      4 C3          1.1765    1.5884   -0.0006 C.2       1 <0>         0.4633
      5 O1          2.1986    0.9442   -0.0139 O.co2     1 <0>        -0.6272
      6 N1          2.6340    3.5287   -0.0041 N.pl3     1 <0>        -1.0873
      7 S1          3.0843    4.8918    0.8215 S.o2      1 <0>         2.6918
      8 O2          4.4871    5.0303    0.6423 O.2       1 <0>        -0.9676
      9 O3          2.1650    5.9113    0.4543 O.2       1 <0>        -0.9604
     10 C4          2.8245    4.5727    2.5348 C.ar      1 <0>        -0.6568
     11 C5          1.6060    4.8778    3.1150 C.ar      1 <0>        -0.0238
     12 C6          1.3937    4.6254    4.4543 C.ar      1 <0>        -0.1132
     13 C7          2.4161    4.0707    5.2277 C.ar      1 <0>        -0.0031
     14 C8          3.6456    3.7706    4.6366 C.ar      1 <0>        -0.0997
     15 C9          3.8420    4.0235    3.2949 C.ar      1 <0>        -0.0171
     16 C10         2.1987    3.8037    6.6618 C.2       1 <0>         0.1400
     17 N2          3.1507    3.2887    7.3774 N.2       1 <0>        -0.2202
     18 N3          2.9442    3.0350    8.7397 N.am      1 <0>        -0.5807
     19 C11         3.9330    2.5002    9.4831 C.2       1 <0>         0.5300
     20 O4          5.0019    2.2384    8.9726 O.2       1 <0>        -0.4721
     21 C12         3.7109    2.2273   10.9484 C.3       1 <0>         0.0490
     22 O5          4.8967    1.6645   11.5132 O.3       1 <0>        -0.2830
     23 C13         4.8641    1.3575   12.8367 C.ar      1 <0>         0.1602
     24 C14         3.7159    1.5986   13.5777 C.ar      1 <0>        -0.2221
     25 C15         3.6824    1.2823   14.9219 C.ar      1 <0>        -0.0486
     26 C16         4.7950    0.7343   15.5327 C.ar      1 <0>        -0.1908
     27 C17         5.9443    0.4971   14.7976 C.ar      1 <0>         0.1418
     28 C18         5.9801    0.8083   13.4497 C.ar      1 <0>        -0.1848
     29 F1          7.0309   -0.0376   15.3965 F         1 <0>        -0.1318
     30 C19         0.8709    4.1288    7.2960 C.3       1 <0>        -0.1592
     31 H2          0.5644    4.7277   -1.2273 H         1 <0>         0.0586
     32 H3          1.0130    3.2604   -2.1295 H         1 <0>         0.0539
     33 H4         -0.5188    3.3153   -1.2245 H         1 <0>         0.0731
     34 H5          3.2966    3.0180   -0.4951 H         1 <0>         0.4227
     35 H6          0.8178    5.3107    2.5168 H         1 <0>         0.1472
     36 H7          0.4404    4.8596    4.9048 H         1 <0>         0.1396
     37 H8          4.4406    3.3419    5.2286 H         1 <0>         0.1440
     38 H9          4.7921    3.7920    2.8365 H         1 <0>         0.1459
     39 H10         2.0895    3.2443    9.1479 H         1 <0>         0.3875
     40 H11         3.4722    3.1599   11.4596 H         1 <0>         0.1012
     41 H12         2.8843    1.5265   11.0662 H         1 <0>         0.1020
     42 H13         2.8472    2.0301   13.1027 H         1 <0>         0.1357
     43 H14         2.7873    1.4670   15.4973 H         1 <0>         0.1382
     44 H15         4.7679    0.4911   16.5847 H         1 <0>         0.1384
     45 H16         6.8761    0.6233   12.8757 H         1 <0>         0.1474
     46 H17         0.2113    3.2642    7.2218 H         1 <0>         0.0936
     47 H18         1.0217    4.3818    8.3454 H         1 <0>         0.0701
     48 H19         0.4192    4.9757    6.7794 H         1 <0>         0.0949
     49 O6         -0.0110    0.9628    0.0073 O.co2     1 <0>        -0.7589
@<TRIPOS>BOND
     1    1    2 1
     2    1   31 1
     3    1   32 1
     4    1   33 1
     5    2    3 1
     6    2    4 1
     7    2    6 1
     8    4    5 2
     9    4   49 1
    10    6    7 1
    11    6   34 1
    12    7    8 2
    13    7    9 2
    14    7   10 1
    15   10   15 ar
    16   10   11 ar
    17   11   12 ar
    18   11   35 1
    19   12   13 ar
    20   12   36 1
    21   13   14 ar
    22   13   16 1
    23   14   15 ar
    24   14   37 1
    25   15   38 1
    26   16   17 2
    27   16   30 1
    28   17   18 1
    29   18   19 am
    30   18   39 1
    31   19   20 2
    32   19   21 1
    33   21   22 1
    34   21   40 1
    35   21   41 1
    36   22   23 1
    37   23   28 ar
    38   23   24 ar
    39   24   25 ar
    40   24   42 1
    41   25   26 ar
    42   25   43 1
    43   26   27 ar
    44   26   44 1
    45   27   28 ar
    46   27   29 1
    47   28   45 1
    48   30   46 1
    49   30   47 1
    50   30   48 1
@<TRIPOS>MOLECULE
ZINC13393360
   44    45     0     0     0
SMALL
USER_CHARGES
2-[[4-[[4-(difluoromethoxy)-3-methoxy-benzoyl]amino]phenyl]sulfonylamino]acetic acid
@<TRIPOS>ATOM
      1 C1         -0.8843   -4.8962    0.1179 C.3       1 <0>         0.0217
      2 O1         -2.1830   -4.3127    0.2407 O.3       1 <0>        -0.3036
      3 C2         -2.2520   -2.9545    0.2420 C.ar      1 <0>         0.1106
      4 C3         -1.0978   -2.2041    0.1279 C.ar      1 <0>        -0.1142
      5 C4         -1.1725   -0.8087    0.1291 C.ar      1 <0>        -0.1209
      6 C5         -2.4136   -0.1787    0.2511 C.ar      1 <0>        -0.0798
      7 C6         -3.5615   -0.9331    0.3592 C.ar      1 <0>        -0.1611
      8 C7         -3.4876   -2.3194    0.3580 C.ar      1 <0>         0.1062
      9 O2         -4.6213   -3.0585    0.4705 O.3       1 <0>        -0.3054
     10 C8         -5.8531   -2.3434    0.5858 C.3       1 <0>         0.4097
     11 F1         -5.8174   -1.5338    1.7262 F         1 <0>        -0.1968
     12 F2         -6.0363   -1.5443   -0.5479 F         1 <0>        -0.1965
     13 C9          0.0575   -0.0022    0.0081 C.2       1 <0>         0.5641
     14 O3          1.1374   -0.5518   -0.0929 O.2       1 <0>        -0.5087
     15 N1         -0.0162    1.3436    0.0094 N.am      1 <0>        -0.6687
     16 C10         1.1548    2.1080   -0.0075 C.ar      1 <0>         0.1912
     17 C11         1.2082    3.3145    0.6784 C.ar      1 <0>        -0.1638
     18 C12         2.3683    4.0638    0.6652 C.ar      1 <0>         0.0013
     19 C13         3.4717    3.6202   -0.0404 C.ar      1 <0>        -0.6850
     20 C14         3.4198    2.4223   -0.7295 C.ar      1 <0>         0.0013
     21 C15         2.2649    1.6650   -0.7149 C.ar      1 <0>        -0.1433
     22 S1          4.9472    4.5830   -0.0612 S.o2      1 <0>         2.6953
     23 O4          4.9205    5.3924    1.1064 O.2       1 <0>        -0.9630
     24 O5          6.0133    3.6865   -0.3424 O.2       1 <0>        -0.9682
     25 N2          4.8416    5.6130   -1.3536 N.pl3     1 <0>        -1.0939
     26 C16         3.8098    6.6527   -1.3793 C.3       1 <0>         0.0738
     27 C17         4.1436    7.6654   -2.4441 C.2       1 <0>         0.4644
     28 O6          5.1410    7.5324   -3.1130 O.co2     1 <0>        -0.6284
     29 H1         -0.4308   -4.5790   -0.8211 H         1 <0>         0.0605
     30 H2         -0.2602   -4.5721    0.9507 H         1 <0>         0.0602
     31 H3         -0.9715   -5.9827    0.1306 H         1 <0>         0.1058
     32 H4         -0.1399   -2.6948    0.0383 H         1 <0>         0.1559
     33 H5         -2.4735    0.8997    0.2568 H         1 <0>         0.1376
     34 H6         -4.5206   -0.4448    0.4496 H         1 <0>         0.1495
     35 H7         -6.6778   -3.0513    0.6684 H         1 <0>         0.1856
     36 H8         -0.8815    1.7819    0.0181 H         1 <0>         0.4139
     37 H9          0.3451    3.6640    1.2255 H         1 <0>         0.1362
     38 H10         2.4123    4.9994    1.2029 H         1 <0>         0.1476
     39 H11         4.2834    2.0785   -1.2793 H         1 <0>         0.1449
     40 H12         2.2252    0.7293   -1.2526 H         1 <0>         0.1472
     41 H13         5.4630    5.5279   -2.0936 H         1 <0>         0.4244
     42 H14         2.8430    6.1997   -1.5989 H         1 <0>         0.0683
     43 H15         3.7675    7.1466   -0.4085 H         1 <0>         0.0844
     44 O7          3.3328    8.7153   -2.6496 O.co2     1 <0>        -0.7601
@<TRIPOS>BOND
     1    1    2 1
     2    1   29 1
     3    1   30 1
     4    1   31 1
     5    2    3 1
     6    3    8 ar
     7    3    4 ar
     8    4    5 ar
     9    4   32 1
    10    5    6 ar
    11    5   13 1
    12    6    7 ar
    13    6   33 1
    14    7    8 ar
    15    7   34 1
    16    8    9 1
    17    9   10 1
    18   10   11 1
    19   10   12 1
    20   10   35 1
    21   13   14 2
    22   13   15 am
    23   15   16 1
    24   15   36 1
    25   16   21 ar
    26   16   17 ar
    27   17   18 ar
    28   17   37 1
    29   18   19 ar
    30   18   38 1
    31   19   20 ar
    32   19   22 1
    33   20   21 ar
    34   20   39 1
    35   21   40 1
    36   22   23 2
    37   22   24 2
    38   22   25 1
    39   25   26 1
    40   25   41 1
    41   26   27 1
    42   26   42 1
    43   26   43 1
    44   27   28 2
    45   27   44 1
@<TRIPOS>MOLECULE
ZINC19800338
   42    43     0     0     0
SMALL
USER_CHARGES
2-[[2-[5-(9H-purin-6-ylsulfanyl)pentanoylamino]acetyl]amino]acetic acid
@<TRIPOS>ATOM
      1 C1         -3.2238   -1.5072    0.0377 C.2       1 <0>         0.3015
      2 N1         -2.4069   -2.5978   -0.0054 N.2       1 <0>        -0.4934
      3 H1         -2.8190    0.6380    0.0443 H         1 <0>         0.4624
      4 C2         -1.1128   -2.1422   -0.0104 C.ar      1 <0>         0.2992
      5 C3         -1.1958   -0.7398    0.0095 C.ar      1 <0>        -0.0808
      6 N2         -2.5112   -0.4180    0.0328 N.pl3     1 <0>        -0.5335
      7 C4          0.0021   -0.0041    0.0020 C.ar      1 <0>         0.2087
      8 N3          1.1537   -0.6689   -0.0211 N.ar      1 <0>        -0.5235
      9 C5          1.1808   -1.9888   -0.0282 C.ar      1 <0>         0.3376
     10 N4          0.0849   -2.7184   -0.0286 N.ar      1 <0>        -0.4900
     11 S1         -0.0218    1.7577    0.0117 S.3       1 <0>        -0.0619
     12 C6          1.7562    2.0963   -0.0035 C.3       1 <0>        -0.0921
     13 C7          1.9874    3.6087    0.0025 C.3       1 <0>        -0.1106
     14 C8          3.4904    3.8949   -0.0104 C.3       1 <0>        -0.0981
     15 C9          3.7217    5.4073   -0.0044 C.3       1 <0>        -0.1389
     16 C10         5.2020    5.6891   -0.0171 C.2       1 <0>         0.5126
     17 O1          5.9941    4.7708   -0.0296 O.2       1 <0>        -0.5496
     18 N5          5.6457    6.9617   -0.0145 N.am      1 <0>        -0.7282
     19 C11         7.0848    7.2358   -0.0267 C.3       1 <0>         0.1017
     20 C12         7.3126    8.7254   -0.0209 C.2       1 <0>         0.5011
     21 O2          6.3661    9.4836   -0.0078 O.2       1 <0>        -0.5639
     22 N6          8.5682    9.2152   -0.0303 N.am      1 <0>        -0.7083
     23 C13         8.7896   10.6633   -0.0246 C.3       1 <0>         0.0783
     24 C14        10.2700   10.9452   -0.0372 C.2       1 <0>         0.4598
     25 O3         11.0591   10.0303   -0.0497 O.co2     1 <0>        -0.6342
     26 O4         10.7119   12.2127   -0.0346 O.co2     1 <0>        -0.7561
     27 H2         -4.2165   -1.6264    0.0554 H         1 <0>         0.2107
     28 H3          2.0769   -2.4325   -0.0420 H         1 <0>         0.1872
     29 H4          2.2219    1.6506    0.8878 H         1 <0>         0.1023
     30 H5          2.2048    1.6604   -0.9083 H         1 <0>         0.1024
     31 H6          1.5216    4.0544   -0.8888 H         1 <0>         0.0748
     32 H7          1.5389    4.0446    0.9074 H         1 <0>         0.0748
     33 H8          3.9562    3.4492    0.8809 H         1 <0>         0.0757
     34 H9          3.9389    3.4590   -0.9153 H         1 <0>         0.0757
     35 H10         3.2559    5.8530   -0.8957 H         1 <0>         0.0955
     36 H11         3.2732    5.8433    0.9005 H         1 <0>         0.0955
     37 H12         4.9273    7.7946   -0.0032 H         1 <0>         0.4345
     38 H13         7.5505    6.7902    0.8647 H         1 <0>         0.0956
     39 H14         7.5335    6.7998   -0.9315 H         1 <0>         0.0956
     40 H15         9.4267    8.5276   -0.0423 H         1 <0>         0.4335
     41 H16         8.3239   11.1089   -0.9160 H         1 <0>         0.0731
     42 H17         8.3410   11.0993    0.8802 H         1 <0>         0.0732
@<TRIPOS>BOND
     1    1   27 1
     2    1    2 2
     3    1    6 1
     4    2    4 1
     5    3    6 1
     6    4   10 ar
     7    4    5 ar
     8    5    7 ar
     9    5    6 1
    10    7    8 ar
    11    7   11 1
    12    8    9 ar
    13    9   10 ar
    14    9   28 1
    15   11   12 1
    16   12   13 1
    17   12   29 1
    18   12   30 1
    19   13   14 1
    20   13   31 1
    21   13   32 1
    22   14   15 1
    23   14   33 1
    24   14   34 1
    25   15   16 1
    26   15   35 1
    27   15   36 1
    28   16   17 2
    29   16   18 am
    30   18   19 1
    31   18   37 1
    32   19   20 1
    33   19   38 1
    34   19   39 1
    35   20   21 2
    36   20   22 am
    37   22   23 1
    38   22   40 1
    39   23   24 1
    40   23   41 1
    41   23   42 1
    42   24   25 2
    43   24   26 1
@<TRIPOS>MOLECULE
ZINC49601680
   50    50     0     0     0
SMALL
USER_CHARGES

@<TRIPOS>ATOM
      1 C1         -0.4167    1.7165    0.0654 C.3       1 <0>        -0.1503
      2 C2         -0.3072    0.1919    0.1315 C.3       1 <0>         0.0865
      3 C3          0.3878   -0.2136    1.4328 C.3       1 <0>        -0.1738
      4 O1         -1.6153   -0.3819    0.0914 O.3       1 <0>        -0.3571
      5 C4         -1.6643   -1.6757   -0.5134 C.3       1 <0>         0.2275
      6 H1         -1.1494   -1.6477   -1.4737 H         1 <0>         0.0540
      7 C5         -3.1240   -2.0838   -0.7284 C.3       1 <0>         0.0615
      8 H2         -3.6003   -1.3847   -1.4159 H         1 <0>         0.0668
      9 C6         -3.1693   -3.4956   -1.3211 C.3       1 <0>         0.0951
     10 H3         -2.6869   -3.4964   -2.2985 H         1 <0>         0.0763
     11 C7         -2.4295   -4.4549   -0.3837 C.3       1 <0>         0.0694
     12 H4         -2.4090   -5.4515   -0.8246 H         1 <0>         0.0964
     13 C8         -0.9966   -3.9552   -0.1820 C.3       1 <0>         0.1129
     14 H5         -0.4729   -3.9573   -1.1380 H         1 <0>         0.0809
     15 O2         -1.0261   -2.6260    0.3420 O.3       1 <0>        -0.3656
     16 C9         -0.2689   -4.8751    0.8004 C.3       1 <0>         0.0853
     17 O3          1.1004   -4.4784    0.8995 O.3       1 <0>        -0.5673
     18 O4         -3.1013   -4.5040    0.8766 O.3       1 <0>        -0.3138
     19 C10        -4.0619   -5.4305    1.0194 C.2       1 <0>         0.4711
     20 O5         -4.3238   -6.1752    0.1046 O.2       1 <0>        -0.4859
     21 C11        -4.8139   -5.5420    2.3206 C.3       1 <0>        -0.1432
     22 C12        -5.8449   -6.6678    2.2191 C.3       1 <0>         0.1742
     23 C13        -5.1303   -7.9891    1.9282 C.3       1 <0>        -0.1499
     24 C14        -6.6083   -6.7810    3.5402 C.3       1 <0>        -0.2146
     25 C15        -7.3101   -5.4788    3.8279 C.2       1 <0>         0.4944
     26 O6         -7.2857   -4.5785    3.0061 O.co2     1 <0>        -0.6901
     27 O7         -7.9023   -5.3255    4.8826 O.co2     1 <0>        -0.6972
     28 O8         -6.7623   -6.3797    1.1620 O.3       1 <0>        -0.5612
     29 O9         -4.5291   -3.9128   -1.4588 O.3       1 <0>        -0.5220
     30 O10        -3.8137   -2.0676    0.5230 O.3       1 <0>        -0.5129
     31 H6          0.5811    2.1541    0.0960 H         1 <0>         0.0702
     32 H7         -0.9119    2.0054   -0.8617 H         1 <0>         0.0592
     33 H8         -0.9974    2.0762    0.9148 H         1 <0>         0.0657
     34 H9          0.2735   -0.1678   -0.7179 H         1 <0>         0.0578
     35 H10         0.4659   -1.2998    1.4799 H         1 <0>         0.0777
     36 H11         1.3857    0.2240    1.4634 H         1 <0>         0.0571
     37 H12        -0.1929    0.1461    2.2822 H         1 <0>         0.0606
     38 H13        -0.7395   -4.8045    1.7810 H         1 <0>         0.0702
     39 H14        -0.3242   -5.9037    0.4440 H         1 <0>         0.0632
     40 H15         1.6236   -5.0193    1.5068 H         1 <0>         0.3817
     41 H16        -4.1141   -5.7618    3.1270 H         1 <0>         0.0865
     42 H17        -5.3229   -4.6007    2.5279 H         1 <0>         0.1413
     43 H18        -4.3397   -8.1438    2.6624 H         1 <0>         0.0518
     44 H19        -5.8457   -8.8095    1.9862 H         1 <0>         0.0524
     45 H20        -4.6966   -7.9552    0.9288 H         1 <0>         0.0799
     46 H21        -7.3441   -7.5819    3.4672 H         1 <0>         0.0698
     47 H22        -5.9088   -7.0025    4.3462 H         1 <0>         0.0644
     48 H23        -7.2519   -5.5542    1.2802 H         1 <0>         0.3876
     49 H24        -5.0583   -3.3449   -2.0354 H         1 <0>         0.3769
     50 H25        -3.8205   -1.2036    0.9572 H         1 <0>         0.3787
@<TRIPOS>BOND
     1    1    2 1
     2    1   31 1
     3    1   32 1
     4    1   33 1
     5    2    3 1
     6    2    4 1
     7    2   34 1
     8    3   35 1
     9    3   36 1
    10    3   37 1
    11    4    5 1
    12    5    6 1
    13    5   15 1
    14    5    7 1
    15    7    8 1
    16    7    9 1
    17    7   30 1
    18    9   10 1
    19    9   11 1
    20    9   29 1
    21   11   12 1
    22   11   13 1
    23   11   18 1
    24   13   14 1
    25   13   15 1
    26   13   16 1
    27   16   17 1
    28   16   38 1
    29   16   39 1
    30   17   40 1
    31   18   19 1
    32   19   20 2
    33   19   21 1
    34   21   22 1
    35   21   41 1
    36   21   42 1
    37   22   23 1
    38   22   24 1
    39   22   28 1
    40   23   43 1
    41   23   44 1
    42   23   45 1
    43   24   25 1
    44   24   46 1
    45   24   47 1
    46   25   26 2
    47   25   27 1
    48   28   48 1
    49   29   49 1
    50   30   50 1
@<TRIPOS>MOLECULE
ZINC65882078
   46    46     0     0     0
SMALL
USER_CHARGES

@<TRIPOS>ATOM
      1 C1         -0.0187    1.5258    0.0104 C.3       1 <0>        -0.1420
      2 C2          0.0021   -0.0041    0.0020 C.3       1 <0>        -0.5981
      3 S1         -1.6997   -0.6320    0.0149 S.o2      1 <0>         2.5173
      4 O1         -2.3220   -0.3339    1.2571 O.2       1 <0>        -1.0294
      5 O2         -2.3456   -0.3206   -1.2120 O.2       1 <0>        -1.0294
      6 N1         -1.5451   -2.2807    0.0046 N.2       1 <0>        -1.0399
      7 C3         -2.6777   -3.0843    0.0111 C.ar      1 <0>         0.3316
      8 C4         -3.9424   -2.5089    0.0204 C.ar      1 <0>        -0.2605
      9 C5         -5.0660   -3.3094    0.0264 C.ar      1 <0>        -0.0467
     10 C6         -4.9440   -4.6901    0.0231 C.ar      1 <0>        -0.2412
     11 C7         -3.6988   -5.2789    0.0139 C.ar      1 <0>        -0.0424
     12 C8         -2.5509   -4.4821    0.0023 C.ar      1 <0>        -0.2241
     13 C9         -1.2151   -5.1057   -0.0137 C.2       1 <0>         0.5641
     14 O3         -0.2187   -4.4086   -0.0195 O.2       1 <0>        -0.4991
     15 N2         -1.0982   -6.4483   -0.0220 N.am      1 <0>        -0.7536
     16 C10         0.2292   -7.0680   -0.0380 C.3       1 <0>         0.1416
     17 C11         0.0811   -8.5908   -0.0448 C.3       1 <0>        -0.1513
     18 C12         1.4465   -9.2282   -0.0612 C.2       1 <0>         0.5179
     19 O4          2.4403   -8.5330   -0.0669 O.2       1 <0>        -0.5323
     20 N3          1.5634  -10.5709   -0.0695 N.am      1 <0>        -0.7301
     21 C13         2.8908  -11.1905   -0.0855 C.3       1 <0>         0.1211
     22 C14         2.7427  -12.7133   -0.0923 C.3       1 <0>         0.0479
     23 O5          2.1183  -13.1258   -1.3097 O.3       1 <0>        -0.3889
     24 C15         1.9319  -14.5385   -1.4177 C.3       1 <0>         0.0307
     25 H1          1.0039    1.9031    0.0027 H         1 <0>         0.0681
     26 H2         -0.5459    1.8868   -0.8726 H         1 <0>         0.0635
     27 H3         -0.5289    1.8773    0.9072 H         1 <0>         0.0635
     28 H4          0.5123   -0.3556   -0.8948 H         1 <0>         0.1207
     29 H5          0.5293   -0.3651    0.8851 H         1 <0>         0.1206
     30 H6         -4.0460   -1.4339    0.0234 H         1 <0>         0.1057
     31 H7         -6.0468   -2.8574    0.0340 H         1 <0>         0.1035
     32 H8         -5.8301   -5.3076    0.0282 H         1 <0>         0.1040
     33 H9         -3.6097   -6.3552    0.0117 H         1 <0>         0.1043
     34 H10        -1.8930   -7.0044   -0.0175 H         1 <0>         0.3891
     35 H11         0.7673   -6.7513   -0.9315 H         1 <0>         0.0686
     36 H12         0.7842   -6.7609    0.8484 H         1 <0>         0.0684
     37 H13        -0.4570   -8.9075    0.8487 H         1 <0>         0.0988
     38 H14        -0.4740   -8.8979   -0.9312 H         1 <0>         0.0997
     39 H15         0.7686  -11.1269   -0.0650 H         1 <0>         0.4031
     40 H16         3.4289  -10.8739   -0.9790 H         1 <0>         0.0767
     41 H17         3.4458  -10.8834    0.8009 H         1 <0>         0.0835
     42 H18         3.7273  -13.1745   -0.0146 H         1 <0>         0.0664
     43 H19         2.1289  -13.0225    0.7538 H         1 <0>         0.0574
     44 H20         1.4527  -14.7700   -2.3690 H         1 <0>         0.0874
     45 H21         2.8997  -15.0375   -1.3675 H         1 <0>         0.0417
     46 H22         1.3013  -14.8855   -0.5992 H         1 <0>         0.0421
@<TRIPOS>BOND
     1    1    2 1
     2    1   25 1
     3    1   26 1
     4    1   27 1
     5    2    3 1
     6    2   28 1
     7    2   29 1
     8    3    4 2
     9    3    5 2
    10    3    6 1
    11    6    7 1
    12    7   12 ar
    13    7    8 ar
    14    8    9 ar
    15    8   30 1
    16    9   10 ar
    17    9   31 1
    18   10   11 ar
    19   10   32 1
    20   11   12 ar
    21   11   33 1
    22   12   13 1
    23   13   14 2
    24   13   15 am
    25   15   16 1
    26   15   34 1
    27   16   17 1
    28   16   35 1
    29   16   36 1
    30   17   18 1
    31   17   37 1
    32   17   38 1
    33   18   19 2
    34   18   20 am
    35   20   21 1
    36   20   39 1
    37   21   22 1
    38   21   40 1
    39   21   41 1
    40   22   23 1
    41   22   42 1
    42   22   43 1
    43   23   24 1
    44   24   44 1
    45   24   45 1
    46   24   46 1
@<TRIPOS>MOLECULE
ZINC14466852
   44    47     0     0     0
SMALL
USER_CHARGES
N-[(3aR,4R,9bS)-4-(3,5-dichloro-2-hydroxy-phenyl)-3a,4,5,9b-tetrahydro-3H-cyclopenta[c]quinolin-8-yl]acetamide
@<TRIPOS>ATOM
      1 C1          8.5314    9.4504    0.8830 C.3       1 <0>        -0.1729
      2 C2          7.3947    8.4610    0.8745 C.2       1 <0>         0.5085
      3 O1          6.3227    8.7648    1.3538 O.2       1 <0>        -0.5292
      4 N1          7.5693    7.2386    0.3344 N.am      1 <0>        -0.6729
      5 C3          6.5492    6.2816    0.4219 C.ar      1 <0>         0.0952
      6 C4          5.7237    6.2488    1.5383 C.ar      1 <0>        -0.0763
      7 C5          4.7219    5.3031    1.6186 C.ar      1 <0>        -0.1648
      8 C6          4.5407    4.3901    0.5873 C.ar      1 <0>         0.2092
      9 C7          5.3596    4.4174   -0.5309 C.ar      1 <0>        -0.1169
     10 C8          6.3666    5.3699   -0.6052 C.ar      1 <0>        -0.1004
     11 C9          5.1970    3.4569   -1.6659 C.3       1 <0>        -0.0123
     12 H1          5.2321    3.9993   -2.6107 H         1 <0>         0.0923
     13 C10         6.2730    2.3973   -1.6517 C.2       1 <0>        -0.1526
     14 C11         5.7819    1.2471   -2.0444 C.2       1 <0>        -0.1700
     15 C12         4.3094    1.3850   -2.3797 C.3       1 <0>        -0.1005
     16 C13         3.8812    2.6578   -1.5973 C.3       1 <0>        -0.0925
     17 H2          3.0421    3.1858   -2.0504 H         1 <0>         0.1043
     18 C14         3.6013    2.2364   -0.1518 C.3       1 <0>         0.2197
     19 H3          4.4085    1.5965    0.2048 H         1 <0>         0.0827
     20 N2          3.5186    3.4363    0.6875 N.pl3     1 <0>        -0.7429
     21 C15         2.2964    1.4853   -0.0886 C.ar      1 <0>        -0.0951
     22 C16         2.2952    0.1162    0.0994 C.ar      1 <0>        -0.0777
     23 C17         1.0979   -0.5743    0.1570 C.ar      1 <0>        -0.0320
     24 C18        -0.1013    0.1040    0.0267 C.ar      1 <0>        -0.0852
     25 C19        -0.1046    1.4732   -0.1618 C.ar      1 <0>        -0.0562
     26 C20         1.0964    2.1675   -0.2199 C.ar      1 <0>         0.1365
     27 O2          1.0957    3.5143   -0.4049 O.3       1 <0>        -0.4708
     28 Cl1        -1.6089    2.3239   -0.3264 Cl        1 <0>        -0.0384
     29 Cl2         1.0995   -2.2932    0.4004 Cl        1 <0>        -0.0476
     30 H4          8.4993   10.0485   -0.0276 H         1 <0>         0.0964
     31 H5          8.4379   10.1039    1.7504 H         1 <0>         0.0969
     32 H6          9.4793    8.9144    0.9325 H         1 <0>         0.0824
     33 H7          8.4010    7.0212   -0.1149 H         1 <0>         0.4089
     34 H8          5.8648    6.9597    2.3390 H         1 <0>         0.1332
     35 H9          4.0773    5.2730    2.4846 H         1 <0>         0.1238
     36 H10         7.0122    5.4009   -1.4704 H         1 <0>         0.1225
     37 H11         7.2996    2.5634   -1.3603 H         1 <0>         0.1268
     38 H12         6.3470    0.3298   -2.1193 H         1 <0>         0.1278
     39 H13         4.1711    1.5271   -3.4515 H         1 <0>         0.0822
     40 H14         3.7530    0.5148   -2.0315 H         1 <0>         0.0730
     41 H15         2.7749    3.5667    1.2965 H         1 <0>         0.3959
     42 H16         3.2299   -0.4151    0.2013 H         1 <0>         0.1470
     43 H17        -1.0350   -0.4369    0.0720 H         1 <0>         0.1499
     44 H18         0.9868    4.0232    0.4102 H         1 <0>         0.3919
@<TRIPOS>BOND
     1    1    2 1
     2    1   30 1
     3    1   31 1
     4    1   32 1
     5    2    3 2
     6    2    4 am
     7    4    5 1
     8    4   33 1
     9    5   10 ar
    10    5    6 ar
    11    6    7 ar
    12    6   34 1
    13    7    8 ar
    14    7   35 1
    15    8   20 1
    16    8    9 ar
    17    9   10 ar
    18    9   11 1
    19   10   36 1
    20   11   12 1
    21   11   16 1
    22   11   13 1
    23   13   14 2
    24   13   37 1
    25   14   15 1
    26   14   38 1
    27   15   16 1
    28   15   39 1
    29   15   40 1
    30   16   17 1
    31   16   18 1
    32   18   19 1
    33   18   20 1
    34   18   21 1
    35   20   41 1
    36   21   26 ar
    37   21   22 ar
    38   22   23 ar
    39   22   42 1
    40   23   24 ar
    41   23   29 1
    42   24   25 ar
    43   24   43 1
    44   25   26 ar
    45   25   28 1
    46   26   27 1
    47   27   44 1
@<TRIPOS>MOLECULE
ZINC37064437
   38    39     0     0     0
SMALL
USER_CHARGES

@<TRIPOS>ATOM
      1 C1         -0.0167    1.3778    0.0096 C.ar      1 <0>        -0.1799
      2 C2          1.1775    2.0872    0.0020 C.ar      1 <0>         0.2816
      3 C3          2.3873    1.4051   -0.0132 C.ar      1 <0>        -0.1803
      4 C4          2.3999    0.0232   -0.0207 C.ar      1 <0>         0.0507
      5 C5          1.2088   -0.6809   -0.0131 C.ar      1 <0>        -0.6984
      6 C6          0.0021   -0.0041    0.0020 C.ar      1 <0>         0.0437
      7 Br1        -1.6231   -0.9708    0.0130 Br        1 <0>         0.0161
      8 S1          1.2287   -2.4427   -0.0228 S.o2      1 <0>         2.6675
      9 O1         -0.0172   -2.8600   -0.5640 O.2       1 <0>        -0.9305
     10 O2          2.4732   -2.8317   -0.5876 O.2       1 <0>        -0.9369
     11 N1          1.2493   -2.9408    1.5564 N.pl3     1 <0>        -1.1063
     12 C7          0.1044   -2.6628    2.4272 C.3       1 <0>         0.1507
     13 C8         -0.8074   -3.8593    2.4605 C.3       1 <0>        -0.1335
     14 C9         -2.2914   -3.4661    2.5901 C.3       1 <0>        -0.1156
     15 C10        -2.5203   -2.3195    3.5935 C.3       1 <0>        -0.1258
     16 C11        -1.6902   -2.4705    4.8394 C.3       1 <0>        -0.1198
     17 C12        -0.3851   -1.6686    4.6588 C.3       1 <0>        -0.1190
     18 C13         0.5997   -2.3840    3.8610 C.3       1 <0>        -0.1239
     19 Br2         4.0464   -0.9064   -0.0421 Br        1 <0>         0.0113
     20 N2          1.1617    3.4838    0.0092 N.pl3     1 <0>        -0.8551
     21 H1         -0.9588    1.9055    0.0260 H         1 <0>         0.1463
     22 H2          3.3174    1.9541   -0.0195 H         1 <0>         0.1463
     23 H3          2.0195   -3.4166    1.9049 H         1 <0>         0.4184
     24 H4         -0.4386   -1.7953    2.0522 H         1 <0>         0.0887
     25 H5         -0.6730   -4.4310    1.5422 H         1 <0>         0.0761
     26 H6         -0.5338   -4.4877    3.3081 H         1 <0>         0.0675
     27 H7         -2.6596   -3.1561    1.6122 H         1 <0>         0.0609
     28 H8         -2.8588   -4.3376    2.9169 H         1 <0>         0.0637
     29 H9         -2.2665   -1.3746    3.1130 H         1 <0>         0.0610
     30 H10        -3.5739   -2.2996    3.8719 H         1 <0>         0.0608
     31 H11        -2.2421   -2.0837    5.6961 H         1 <0>         0.0637
     32 H12        -1.4545   -3.5230    4.9971 H         1 <0>         0.0688
     33 H13        -0.6169   -0.7230    4.1687 H         1 <0>         0.0604
     34 H14         0.0399   -1.4602    5.6407 H         1 <0>         0.0650
     35 H15         0.8258   -3.3330    4.3472 H         1 <0>         0.0705
     36 H16         1.5119   -1.7896    3.8101 H         1 <0>         0.0681
     37 H17         0.3162    3.9593    0.0195 H         1 <0>         0.4086
     38 H18         1.9961    3.9783    0.0039 H         1 <0>         0.4087
@<TRIPOS>BOND
     1    1    6 ar
     2    1    2 ar
     3    1   21 1
     4    2    3 ar
     5    2   20 1
     6    3    4 ar
     7    3   22 1
     8    4    5 ar
     9    4   19 1
    10    5    6 ar
    11    5    8 1
    12    6    7 1
    13    8    9 2
    14    8   10 2
    15    8   11 1
    16   11   12 1
    17   11   23 1
    18   12   18 1
    19   12   13 1
    20   12   24 1
    21   13   14 1
    22   13   25 1
    23   13   26 1
    24   14   15 1
    25   14   27 1
    26   14   28 1
    27   15   16 1
    28   15   29 1
    29   15   30 1
    30   16   17 1
    31   16   31 1
    32   16   32 1
    33   17   18 1
    34   17   33 1
    35   17   34 1
    36   18   35 1
    37   18   36 1
    38   20   37 1
    39   20   38 1
@<TRIPOS>MOLECULE
ZINC39529991
   38    40     0     0     0
SMALL
USER_CHARGES

@<TRIPOS>ATOM
      1 C1          0.2769    1.4052    0.6063 C.ar      1 <0>        -0.1303
      2 C2          1.2845    2.0923   -0.0474 C.ar      1 <0>        -0.1023
      3 C3          2.2900    1.4029   -0.6986 C.ar      1 <0>        -0.1473
      4 C4          2.2938    0.0175   -0.6993 C.ar      1 <0>         0.1166
      5 C5          1.2773   -0.6798   -0.0393 C.ar      1 <0>        -0.0560
      6 C6          0.2683    0.0251    0.6136 C.ar      1 <0>        -0.0839
      7 C7          1.2726   -2.1624   -0.0350 C.ar      1 <0>        -0.0371
      8 C8          0.8694   -2.8637   -1.1690 C.ar      1 <0>        -0.1134
      9 C9          0.8674   -4.2481   -1.1597 C.ar      1 <0>         0.1044
     10 C10         1.2658   -4.9386   -0.0232 C.ar      1 <0>        -0.1338
     11 C11         1.6666   -4.2499    1.1054 C.ar      1 <0>        -0.1067
     12 C12         1.6788   -2.8629    1.1063 C.ar      1 <0>         0.1716
     13 N1          2.0903   -2.1666    2.2463 N.pl3     1 <0>        -0.6690
     14 C13         1.1570   -1.9142    3.3546 C.3       1 <0>         0.1471
     15 C14         1.1956   -0.4201    3.6927 C.3       1 <0>         0.0339
     16 N2          2.5845   -0.0142    3.9457 N.3       1 <0>        -0.6713
     17 C15         3.4157   -0.1825    2.7462 C.3       1 <0>         0.1048
     18 H1          2.9852    0.3869    1.9225 H         1 <0>         0.0769
     19 C16         3.4698   -1.6722    2.3719 C.3       1 <0>         0.1620
     20 I1          5.4163    0.5314    3.1489 I         1 <0>        -0.1208
     21 O1          0.4738   -4.9333   -2.2665 O.3       1 <0>        -0.4988
     22 O2          3.2815   -0.6613   -1.3394 O.3       1 <0>        -0.4896
     23 H2         -0.5032    1.9508    1.1163 H         1 <0>         0.1264
     24 H3          1.2851    3.1723   -0.0492 H         1 <0>         0.1272
     25 H4          3.0734    1.9448   -1.2076 H         1 <0>         0.1305
     26 H5         -0.5198   -0.5079    1.1248 H         1 <0>         0.1246
     27 H6          0.5584   -2.3284   -2.0539 H         1 <0>         0.1285
     28 H7          1.2620   -6.0186   -0.0211 H         1 <0>         0.1310
     29 H8          1.9748   -4.7924    1.9870 H         1 <0>         0.1302
     30 H9          0.1476   -2.1957    3.0546 H         1 <0>         0.0749
     31 H10         1.4582   -2.4948    4.2265 H         1 <0>         0.0624
     32 H11         0.7960    0.1527    2.8558 H         1 <0>         0.0486
     33 H12         0.5942   -0.2328    4.5823 H         1 <0>         0.0877
     34 H13         2.6278    0.9349    4.2853 H         1 <0>         0.3492
     35 H14         3.9891   -2.2301    3.1512 H         1 <0>         0.0699
     36 H15         3.9903   -1.7938    1.4220 H         1 <0>         0.0734
     37 H16         1.1929   -5.1347   -2.8809 H         1 <0>         0.3922
     38 H17         4.0788   -0.7899   -0.8076 H         1 <0>         0.3862
@<TRIPOS>BOND
     1    1    6 ar
     2    1    2 ar
     3    1   23 1
     4    2    3 ar
     5    2   24 1
     6    3    4 ar
     7    3   25 1
     8    4    5 ar
     9    4   22 1
    10    5    6 ar
    11    5    7 1
    12    6   26 1
    13    7   12 ar
    14    7    8 ar
    15    8    9 ar
    16    8   27 1
    17    9   10 ar
    18    9   21 1
    19   10   11 ar
    20   10   28 1
    21   11   12 ar
    22   11   29 1
    23   12   13 1
    24   13   19 1
    25   13   14 1
    26   14   15 1
    27   14   30 1
    28   14   31 1
    29   15   16 1
    30   15   32 1
    31   15   33 1
    32   16   17 1
    33   16   34 1
    34   17   18 1
    35   17   19 1
    36   17   20 1
    37   19   35 1
    38   19   36 1
    39   21   37 1
    40   22   38 1
@<TRIPOS>MOLECULE
ZINC04685326
   42    45     0     0     0
SMALL
USER_CHARGES

@<TRIPOS>ATOM
      1 C1         -0.0184    1.5028    0.0103 C.3       1 <0>        -0.1160
      2 C2          0.0021   -0.0041    0.0020 C.ar      1 <0>        -0.0846
      3 C3          0.0057   -0.6888   -1.1991 C.ar      1 <0>        -0.1108
      4 C4          0.0245   -2.0707   -1.2067 C.ar      1 <0>        -0.1154
      5 C5          0.0400   -2.7685   -0.0132 C.ar      1 <0>        -0.0948
      6 C6          0.0373   -2.0840    1.1875 C.ar      1 <0>        -0.0867
      7 C7          0.0229   -0.7015    1.1951 C.ar      1 <0>        -0.0971
      8 C8          0.0538   -2.8445    2.4885 C.3       1 <0>         0.2144
      9 H1          0.0489   -2.1423    3.3221 H         1 <0>         0.0964
     10 C9         -1.1823   -3.7487    2.5709 C.3       1 <0>        -0.1416
     11 C10        -1.0356   -4.7196    3.7480 C.3       1 <0>         0.2013
     12 H2         -0.8907   -4.1571    4.6704 H         1 <0>         0.0924
     13 N1          0.1371   -5.5816    3.5041 N.pl3     1 <0>        -0.7052
     14 C11         1.2762   -4.9477    3.0258 C.2       1 <0>         0.5466
     15 N2          1.2553   -3.6760    2.5549 N.pl3     1 <0>        -0.4059
     16 N3          2.5610   -3.3686    2.1705 N.2       1 <0>        -0.3579
     17 C12         3.2900   -4.4340    2.4185 C.2       1 <0>         0.4867
     18 N4          2.5006   -5.3942    2.9355 N.2       1 <0>        -0.5968
     19 N5          4.6597   -4.5523    2.1785 N.pl3     1 <0>        -0.8250
     20 C13        -2.2763   -5.5674    3.8621 C.ar      1 <0>        -0.0827
     21 C14        -2.4437   -6.6619    3.0340 C.ar      1 <0>        -0.0880
     22 C15        -3.5812   -7.4400    3.1373 C.ar      1 <0>        -0.0938
     23 C16        -4.5530   -7.1242    4.0700 C.ar      1 <0>        -0.0252
     24 C17        -4.3851   -6.0285    4.8995 C.ar      1 <0>        -0.0294
     25 C18        -3.2434   -5.2538    4.7982 C.ar      1 <0>        -0.0814
     26 Cl1        -5.6039   -5.6305    6.0699 Cl        1 <0>        -0.0393
     27 Cl2        -5.9823   -8.1009    4.1998 Cl        1 <0>        -0.0406
     28 H3          1.0042    1.8801    0.0026 H         1 <0>         0.0718
     29 H4         -0.5455    1.8639   -0.8728 H         1 <0>         0.0674
     30 H5         -0.5286    1.8543    0.9071 H         1 <0>         0.0671
     31 H6         -0.0064   -0.1437   -2.1314 H         1 <0>         0.1230
     32 H7          0.0266   -2.6056   -2.1449 H         1 <0>         0.1227
     33 H8          0.0540   -3.8484   -0.0191 H         1 <0>         0.1132
     34 H9          0.0246   -0.1666    2.1333 H         1 <0>         0.1230
     35 H10        -2.0714   -3.1350    2.7157 H         1 <0>         0.1118
     36 H11        -1.2801   -4.3144    1.6443 H         1 <0>         0.0909
     37 H12         0.1136   -6.5372    3.6689 H         1 <0>         0.4262
     38 H13         5.1515   -3.8081    1.7974 H         1 <0>         0.4133
     39 H14         5.1200   -5.3789    2.3928 H         1 <0>         0.4131
     40 H15        -1.6853   -6.9088    2.3058 H         1 <0>         0.1418
     41 H16        -3.7117   -8.2944    2.4897 H         1 <0>         0.1475
     42 H17        -3.1099   -4.4013    5.4477 H         1 <0>         0.1479
@<TRIPOS>BOND
     1    1    2 1
     2    1   28 1
     3    1   29 1
     4    1   30 1
     5    2    7 ar
     6    2    3 ar
     7    3    4 ar
     8    3   31 1
     9    4    5 ar
    10    4   32 1
    11    5    6 ar
    12    5   33 1
    13    6    7 ar
    14    6    8 1
    15    7   34 1
    16    8    9 1
    17    8   15 1
    18    8   10 1
    19   10   11 1
    20   10   35 1
    21   10   36 1
    22   11   12 1
    23   11   13 1
    24   11   20 1
    25   13   14 1
    26   13   37 1
    27   14   18 2
    28   14   15 1
    29   15   16 1
    30   16   17 2
    31   17   18 1
    32   17   19 1
    33   19   38 1
    34   19   39 1
    35   20   25 ar
    36   20   21 ar
    37   21   22 ar
    38   21   40 1
    39   22   23 ar
    40   22   41 1
    41   23   24 ar
    42   23   27 1
    43   24   25 ar
    44   24   26 1
    45   25   42 1
@<TRIPOS>MOLECULE
ZINC67196693
   37    38     0     0     0
SMALL
USER_CHARGES

@<TRIPOS>ATOM
      1 C1         -2.9949    3.8027   -2.4920 C.1       1 <0>        -0.1654
      2 C2         -2.1244    3.5110   -1.7603 C.1       1 <0>        -0.1525
      3 C3         -1.0625    3.1553   -0.8679 C.ar      1 <0>         0.0224
      4 C4         -1.2172    2.0829    0.0123 C.ar      1 <0>        -0.0881
      5 C5         -0.1925    1.7421    0.8714 C.ar      1 <0>        -0.1097
      6 C6          0.9892    2.4595    0.8642 C.ar      1 <0>        -0.1123
      7 C7          1.1527    3.5289   -0.0079 C.ar      1 <0>         0.1230
      8 C8          0.1313    3.8752   -0.8793 C.ar      1 <0>        -0.0504
      9 N1          2.3501    4.2525   -0.0107 N.pl3     1 <0>        -0.6309
     10 C9          2.3249    5.5967   -0.1055 C.2       1 <0>         0.5518
     11 S1          0.8290    6.4288   -0.0793 S.2       1 <0>        -0.5574
     12 N2          3.4775    6.2858   -0.2209 N.pl3     1 <0>        -0.4618
     13 N3          4.7016    5.6048   -0.2424 N.am      1 <0>        -0.5525
     14 C10         5.8542    6.2939   -0.3578 C.2       1 <0>         0.5233
     15 O1          5.8315    7.5035   -0.4431 O.2       1 <0>        -0.5008
     16 C11         7.1710    5.5614   -0.3809 C.3       1 <0>        -0.0952
     17 C12         8.2960    6.5548   -0.5166 C.ar      1 <0>        -0.0657
     18 C13         8.8092    6.8515   -1.7655 C.ar      1 <0>        -0.0773
     19 C14         9.8409    7.7624   -1.8907 C.ar      1 <0>        -0.1030
     20 C15        10.3607    8.3784   -0.7658 C.ar      1 <0>        -0.0175
     21 C16         9.8474    8.0823    0.4839 C.ar      1 <0>        -0.1009
     22 C17         8.8113    7.1740    0.6081 C.ar      1 <0>        -0.0067
     23 Cl1         8.1623    6.8062    2.1757 Cl        1 <0>        -0.0519
     24 Cl2        11.6572    9.5222   -0.9232 Cl        1 <0>        -0.0505
     25 H1         -3.7735    4.0635   -3.1464 H         1 <0>         0.2250
     26 H2         -2.1390    1.5203    0.0211 H         1 <0>         0.1313
     27 H3         -0.3142    0.9123    1.5519 H         1 <0>         0.1359
     28 H4          1.7877    2.1881    1.5388 H         1 <0>         0.1289
     29 H5          0.2582    4.7030   -1.5612 H         1 <0>         0.1473
     30 H6          3.1984    3.7868    0.0555 H         1 <0>         0.4017
     31 H7          3.4593    7.2532   -0.2892 H         1 <0>         0.4618
     32 H8          4.7197    4.6374   -0.1742 H         1 <0>         0.4209
     33 H9          7.2911    5.0007    0.5460 H         1 <0>         0.1195
     34 H10         7.1895    4.8738   -1.2265 H         1 <0>         0.1219
     35 H11         8.4038    6.3710   -2.6437 H         1 <0>         0.1437
     36 H12        10.2419    7.9932   -2.8666 H         1 <0>         0.1445
     37 H13        10.2528    8.5629    1.3621 H         1 <0>         0.1476
@<TRIPOS>BOND
     1    1    2 3
     2    1   25 1
     3    2    3 1
     4    3    8 ar
     5    3    4 ar
     6    4    5 ar
     7    4   26 1
     8    5    6 ar
     9    5   27 1
    10    6    7 ar
    11    6   28 1
    12    7    8 ar
    13    7    9 1
    14    8   29 1
    15    9   10 1
    16    9   30 1
    17   10   11 2
    18   10   12 1
    19   12   13 1
    20   12   31 1
    21   13   14 am
    22   13   32 1
    23   14   15 2
    24   14   16 1
    25   16   17 1
    26   16   33 1
    27   16   34 1
    28   17   22 ar
    29   17   18 ar
    30   18   19 ar
    31   18   35 1
    32   19   20 ar
    33   19   36 1
    34   20   21 ar
    35   20   24 1
    36   21   22 ar
    37   21   37 1
    38   22   23 1
@<TRIPOS>MOLECULE
ZINC12881106
   54    57     0     0     0
SMALL
USER_CHARGES
3-[5-[2-oxo-2-(3-oxo-4H-1,4-benzoxazin-6-yl)ethyl]sulfanyl-4-[[(2R)-tetrahydrofuran-2-yl]methyl]-1,2,4-triazol-3-yl]propanamide
@<TRIPOS>ATOM
      1 C1          4.7159    0.0160   -0.1663 C.ar      1 <0>        -0.0554
      2 C2          3.5189   -0.5940   -0.4711 C.ar      1 <0>        -0.1174
      3 C3          2.3355    0.1280   -0.4144 C.ar      1 <0>         0.1160
      4 C4          2.3530    1.4770   -0.0475 C.ar      1 <0>         0.0808
      5 C5          3.5469    2.0959    0.2601 C.ar      1 <0>        -0.0588
      6 C6          4.7416    1.3662    0.2025 C.ar      1 <0>        -0.1581
      7 C7          6.0177    2.0164    0.5277 C.2       1 <0>         0.4204
      8 O1          6.0383    3.1865    0.8467 O.2       1 <0>        -0.4319
      9 C8          7.3016    1.2298    0.4652 C.3       1 <0>        -0.1636
     10 S1          8.6884    2.3015    0.9174 S.3       1 <0>         0.0795
     11 C9         10.0208    1.1587    0.7642 C.2       1 <0>         0.1594
     12 N1          9.9300   -0.1044    0.4179 N.2       1 <0>        -0.2977
     13 N2         11.0988   -0.6388    0.4054 N.2       1 <0>        -0.2751
     14 C10        11.9966    0.2411    0.7481 C.2       1 <0>         0.1824
     15 N3         11.3424    1.4177    0.9889 N.pl3     1 <0>        -0.4538
     16 C11        11.9363    2.6916    1.4023 C.3       1 <0>         0.1020
     17 C12        11.9815    2.7613    2.9300 C.3       1 <0>         0.0629
     18 H1         12.5163    1.9006    3.3318 H         1 <0>         0.0773
     19 C13        12.6565    4.0785    3.3885 C.3       1 <0>        -0.1488
     20 C14        12.0388    4.2494    4.8032 C.3       1 <0>        -0.1543
     21 C15        10.6189    3.6743    4.6124 C.3       1 <0>         0.0495
     22 O2         10.6500    2.8157    3.4662 O.3       1 <0>        -0.3630
     23 C16        13.4811    0.0059    0.8585 C.3       1 <0>        -0.0162
     24 C17        13.8213   -0.4471    2.2798 C.3       1 <0>        -0.1400
     25 C18        15.3057   -0.6824    2.3902 C.2       1 <0>         0.5200
     26 O3         16.0211   -0.5051    1.4270 O.2       1 <0>        -0.5393
     27 N4         15.8383   -1.0897    3.5593 N.am      1 <0>        -0.8552
     28 N5          1.1455    2.1890    0.0029 N.am      1 <0>        -0.6603
     29 C19        -0.0184    1.5033    0.0103 C.2       1 <0>         0.4907
     30 O4         -1.0755    2.0979    0.0185 O.2       1 <0>        -0.5029
     31 C20         0.0021   -0.0041    0.0020 C.3       1 <0>         0.0494
     32 O5          1.1510   -0.4655   -0.7130 O.3       1 <0>        -0.2963
     33 H2          5.6357   -0.5483   -0.2115 H         1 <0>         0.1491
     34 H3          3.5017   -1.6359   -0.7550 H         1 <0>         0.1517
     35 H4          3.5606    3.1379    0.5435 H         1 <0>         0.1476
     36 H5          7.2528    0.4609    1.1027 H         1 <0>         0.1188
     37 H6          7.4483    0.8536   -0.5473 H         1 <0>         0.1336
     38 H7         12.9486    2.7663    1.0050 H         1 <0>         0.1153
     39 H8         11.3338    3.5149    1.0186 H         1 <0>         0.1081
     40 H9         13.7393    3.9666    3.4435 H         1 <0>         0.0894
     41 H10        12.3817    4.9081    2.7371 H         1 <0>         0.0865
     42 H11        11.9967    5.3018    5.0835 H         1 <0>         0.0870
     43 H12        12.5939    3.6742    5.5443 H         1 <0>         0.0782
     44 H13         9.9103    4.4860    4.4472 H         1 <0>         0.0747
     45 H14        10.3296    3.1031    5.4945 H         1 <0>         0.0704
     46 H15        13.7803   -0.7661    0.1496 H         1 <0>         0.1121
     47 H16        14.0131    0.9306    0.6348 H         1 <0>         0.0915
     48 H17        13.5220    0.3249    2.9886 H         1 <0>         0.0929
     49 H18        13.2892   -1.3718    2.5035 H         1 <0>         0.1065
     50 H19        15.2661   -1.2315    4.3297 H         1 <0>         0.4029
     51 H20        16.7938   -1.2411    3.6304 H         1 <0>         0.4044
     52 H21         1.1461    3.1586    0.0316 H         1 <0>         0.4196
     53 H22         0.0409   -0.3720    1.0273 H         1 <0>         0.1058
     54 H23        -0.9002   -0.3765   -0.4831 H         1 <0>         0.1516
@<TRIPOS>BOND
     1    1    6 ar
     2    1    2 ar
     3    1   33 1
     4    2    3 ar
     5    2   34 1
     6    3   32 1
     7    3    4 ar
     8    4    5 ar
     9    4   28 1
    10    5    6 ar
    11    5   35 1
    12    6    7 1
    13    7    8 2
    14    7    9 1
    15    9   10 1
    16    9   36 1
    17    9   37 1
    18   10   11 1
    19   11   15 1
    20   11   12 2
    21   12   13 1
    22   13   14 2
    23   14   15 1
    24   14   23 1
    25   15   16 1
    26   16   17 1
    27   16   38 1
    28   16   39 1
    29   17   18 1
    30   17   22 1
    31   17   19 1
    32   19   20 1
    33   19   40 1
    34   19   41 1
    35   20   21 1
    36   20   42 1
    37   20   43 1
    38   21   22 1
    39   21   44 1
    40   21   45 1
    41   23   24 1
    42   23   46 1
    43   23   47 1
    44   24   25 1
    45   24   48 1
    46   24   49 1
    47   25   26 2
    48   25   27 am
    49   27   50 1
    50   27   51 1
    51   28   29 am
    52   28   52 1
    53   29   30 2
    54   29   31 1
    55   31   32 1
    56   31   53 1
    57   31   54 1
@<TRIPOS>MOLECULE
ZINC16839611
   52    53     0     0     0
SMALL
USER_CHARGES
(2S)-2-[[(2S)-3-[(4-chlorophenyl)sulfonyl-(4-methoxyphenyl)amino]-2-hydroxy-propyl]amino]propanoic acid
@<TRIPOS>ATOM
      1 C1          0.6798    2.7318    2.8106 C.3       1 <0>        -0.1578
      2 C2         -0.5106    1.8259    2.4890 C.3       1 <0>        -0.0229
      3 H1         -0.1819    0.7868    2.4706 H         1 <0>         0.1360
      4 C3         -1.5724    1.9983    3.5444 C.2       1 <0>         0.4548
      5 O1         -2.6749    2.3837    3.2348 O.co2     1 <0>        -0.6160
      6 C4         -0.3341    1.5108    0.0948 C.3       1 <0>        -0.0404
      7 C5         -0.9351    1.9124   -1.2537 C.3       1 <0>         0.0606
      8 H2         -0.8526    2.9918   -1.3812 H         1 <0>         0.1316
      9 C6         -0.1777    1.2064   -2.3801 C.3       1 <0>         0.0936
     10 N1         -0.6734    1.6813   -3.6743 N.pl3     1 <0>        -0.9321
     11 C7         -1.8058    1.0929   -4.2485 C.ar      1 <0>         0.0892
     12 C8         -1.8068   -0.2624   -4.5508 C.ar      1 <0>        -0.0770
     13 C9         -2.9269   -0.8435   -5.1121 C.ar      1 <0>        -0.2017
     14 C10        -4.0463   -0.0713   -5.3849 C.ar      1 <0>         0.1398
     15 C11        -4.0443    1.2836   -5.0882 C.ar      1 <0>        -0.1373
     16 C12        -2.9271    1.8651   -4.5216 C.ar      1 <0>        -0.0460
     17 O2         -5.1467   -0.6431   -5.9433 O.3       1 <0>        -0.3136
     18 C13        -5.0794   -2.0429   -6.2226 C.3       1 <0>         0.0252
     19 S1          0.1063    2.9144   -4.4578 S.o2      1 <0>         2.6822
     20 O3         -0.8082    3.4294   -5.4158 O.2       1 <0>        -0.9313
     21 O4          0.6939    3.7277   -3.4515 O.2       1 <0>        -0.9472
     22 C14         1.4355    2.1971   -5.3652 C.ar      1 <0>        -0.6802
     23 C15         2.6802    2.0644   -4.7786 C.ar      1 <0>        -0.0108
     24 C16         3.7218    1.4966   -5.4880 C.ar      1 <0>        -0.1307
     25 C17         3.5213    1.0713   -6.7892 C.ar      1 <0>         0.0205
     26 C18         2.2768    1.2096   -7.3776 C.ar      1 <0>        -0.1292
     27 C19         1.2346    1.7724   -6.6653 C.ar      1 <0>        -0.0010
     28 Cl1         4.8307    0.3641   -7.6830 Cl        1 <0>        -0.0466
     29 O5         -2.3119    1.5318   -1.2939 O.3       1 <0>        -0.5383
     30 H3          0.3511    3.7709    2.8289 H         1 <0>         0.0742
     31 H4          1.0885    2.4627    3.7846 H         1 <0>         0.1080
     32 H5          1.4479    2.6071    2.0472 H         1 <0>         0.0671
     33 H6         -0.4166    0.4314    0.2223 H         1 <0>         0.1312
     34 H7          0.7161    1.8011    0.1255 H         1 <0>         0.1380
     35 H8          0.8866    1.4263   -2.2958 H         1 <0>         0.1024
     36 H9         -0.3335    0.1303   -2.3040 H         1 <0>         0.1015
     37 H10        -0.9333   -0.8628   -4.3432 H         1 <0>         0.1281
     38 H11        -2.9294   -1.8985   -5.3432 H         1 <0>         0.1338
     39 H12        -4.9165    1.8840   -5.3006 H         1 <0>         0.1394
     40 H13        -2.9257    2.9201   -4.2906 H         1 <0>         0.1358
     41 H14        -6.0202   -2.3708   -6.6648 H         1 <0>         0.1035
     42 H15        -4.2637   -2.2356   -6.9195 H         1 <0>         0.0573
     43 H16        -4.9031   -2.5901   -5.2965 H         1 <0>         0.0575
     44 H17         2.8377    2.4004   -3.7644 H         1 <0>         0.1490
     45 H18         4.6930    1.3889   -5.0281 H         1 <0>         0.1472
     46 H19         2.1197    0.8775   -8.3932 H         1 <0>         0.1474
     47 H20         0.2630    1.8800   -7.1244 H         1 <0>         0.1511
     48 H21        -2.4608    0.5824   -1.1866 H         1 <0>         0.3854
     49 O6         -1.2935    1.7237    4.8283 O.co2     1 <0>        -0.7010
     50 N2         -1.0695    2.1953    1.1749 N.4       1 <0>        -0.4958
     51 H22        -0.9913    3.2111    1.0470 H         1 <0>         0.4264
     52 H23        -2.0583    1.9209    1.1382 H         1 <0>         0.4390
@<TRIPOS>BOND
     1    1    2 1
     2    1   30 1
     3    1   31 1
     4    1   32 1
     5    2    3 1
     6    2    4 1
     7    2   50 1
     8    4    5 2
     9    4   49 1
    10    6    7 1
    11    6   33 1
    12    6   34 1
    13    6   50 1
    14    7    8 1
    15    7    9 1
    16    7   29 1
    17    9   10 1
    18    9   35 1
    19    9   36 1
    20   10   11 1
    21   10   19 1
    22   11   16 ar
    23   11   12 ar
    24   12   13 ar
    25   12   37 1
    26   13   14 ar
    27   13   38 1
    28   14   15 ar
    29   14   17 1
    30   15   16 ar
    31   15   39 1
    32   16   40 1
    33   17   18 1
    34   18   41 1
    35   18   42 1
    36   18   43 1
    37   19   20 2
    38   19   21 2
    39   19   22 1
    40   22   27 ar
    41   22   23 ar
    42   23   24 ar
    43   23   44 1
    44   24   25 ar
    45   24   45 1
    46   25   26 ar
    47   25   28 1
    48   26   27 ar
    49   26   46 1
    50   27   47 1
    51   29   48 1
    52   50   51 1
    53   50   52 1
@<TRIPOS>MOLECULE
ZINC31165189
   56    57     0     0     0
SMALL
USER_CHARGES
(2S,3R)-2-[[4-(2,4-dihydroxy-3,5,6-trimethyl-benzoyl)oxy-2-hydroxy-6-methyl-benzoyl]amino]-3-hydroxy-butanoic acid
@<TRIPOS>ATOM
      1 C1          2.2500    0.4148   10.0068 C.3       1 <0>        -0.1260
      2 C2          1.9334    1.4102    8.9206 C.ar      1 <0>         0.0165
      3 C3          1.2380    1.0109    7.8023 C.ar      1 <0>        -0.1666
      4 C4          0.9428    1.9260    6.7969 C.ar      1 <0>         0.1351
      5 C5          1.3515    3.2466    6.9113 C.ar      1 <0>        -0.1739
      6 C6          2.0470    3.6618    8.0338 C.ar      1 <0>         0.2068
      7 C7          2.3455    2.7399    9.0487 C.ar      1 <0>        -0.2068
      8 C8          3.0906    3.1715   10.2442 C.2       1 <0>         0.5594
      9 O1          4.3054    3.1148   10.2570 O.2       1 <0>        -0.5386
     10 N1          2.4260    3.6292   11.3237 N.am      1 <0>        -0.6917
     11 C9          3.1669    4.0583   12.5125 C.3       1 <0>         0.1081
     12 H1          4.1093    4.5109   12.1705 H         1 <0>         0.0986
     13 C10         2.3275    5.0660   13.3004 C.3       1 <0>         0.1218
     14 H2          2.8689    5.4300   14.1861 H         1 <0>         0.0704
     15 C11         1.9242    6.2219   12.3827 C.3       1 <0>        -0.1817
     16 O2          1.1535    4.4216   13.7988 O.3       1 <0>        -0.5844
     17 C12         3.4607    2.8618   13.3803 C.2       1 <0>         0.4710
     18 O3          3.0893    1.7633   13.0407 O.co2     1 <0>        -0.6221
     19 O4          4.1350    3.0164   14.5306 O.co2     1 <0>        -0.7709
     20 O5          2.4434    4.9540    8.1498 O.3       1 <0>        -0.5000
     21 O6          0.2568    1.5236    5.6967 O.3       1 <0>        -0.2859
     22 C13        -1.0738    1.3536    5.8332 C.2       1 <0>         0.5321
     23 O7         -1.5926    1.4715    6.9261 O.2       1 <0>        -0.4723
     24 C14        -1.8978    1.0253    4.6593 C.ar      1 <0>        -0.1911
     25 C15        -2.1195   -0.3108    4.3080 C.ar      1 <0>         0.0360
     26 C16        -2.8846   -0.6140    3.2187 C.ar      1 <0>        -0.1658
     27 C17        -3.4534    0.4002    2.4537 C.ar      1 <0>         0.2266
     28 C18        -3.2394    1.7301    2.7849 C.ar      1 <0>        -0.2887
     29 C19        -2.4653    2.0512    3.8872 C.ar      1 <0>         0.2424
     30 O8         -2.2570    3.3498    4.2194 O.3       1 <0>        -0.4951
     31 C20        -3.8536    2.8239    1.9497 C.3       1 <0>        -0.1085
     32 O9         -4.2165    0.0867    1.3762 O.3       1 <0>        -0.4954
     33 C21        -3.1190   -2.0551    2.8456 C.3       1 <0>        -0.1021
     34 C22        -1.5133   -1.4165    5.1332 C.3       1 <0>        -0.1386
     35 H3          1.8480   -0.5708    9.7294 H         1 <0>         0.0653
     36 H4          1.7926    0.7448   10.9512 H         1 <0>         0.0967
     37 H5          3.3405    0.3439   10.1327 H         1 <0>         0.0818
     38 H6          0.9200   -0.0167    7.7049 H         1 <0>         0.1314
     39 H7          1.1233    3.9522    6.1261 H         1 <0>         0.1383
     40 H8          1.3273    3.6806   11.3121 H         1 <0>         0.4183
     41 H9          1.3207    6.9464   12.9492 H         1 <0>         0.0545
     42 H10         1.3340    5.8323   11.5401 H         1 <0>         0.0609
     43 H11         2.8279    6.7179   11.9991 H         1 <0>         0.0625
     44 H12         0.4240    4.9910   14.3935 H         1 <0>         0.3926
     45 H13         2.9960    5.2817    9.0427 H         1 <0>         0.4371
     46 H14        -2.7032    4.1512    3.6122 H         1 <0>         0.4334
     47 H15        -3.5737    3.8033    2.3650 H         1 <0>         0.0681
     48 H16        -4.9487    2.7211    1.9589 H         1 <0>         0.0746
     49 H17        -3.4866    2.7456    0.9157 H         1 <0>         0.0751
     50 H18        -4.6671    0.8863    0.7700 H         1 <0>         0.4316
     51 H19        -3.7534   -2.1030    1.9483 H         1 <0>         0.0722
     52 H20        -3.6202   -2.5722    3.6771 H         1 <0>         0.0673
     53 H21        -2.1544   -2.5419    2.6391 H         1 <0>         0.0678
     54 H22        -1.7960   -2.3900    4.7061 H         1 <0>         0.0854
     55 H23        -1.8838   -1.3480    6.1667 H         1 <0>         0.0832
     56 H24        -0.4177   -1.3185    5.1292 H         1 <0>         0.0834
@<TRIPOS>BOND
     1    1    2 1
     2    1   35 1
     3    1   36 1
     4    1   37 1
     5    2    7 ar
     6    2    3 ar
     7    3    4 ar
     8    3   38 1
     9    4    5 ar
    10    4   21 1
    11    5    6 ar
    12    5   39 1
    13    6    7 ar
    14    6   20 1
    15    7    8 1
    16    8    9 2
    17    8   10 am
    18   10   11 1
    19   10   40 1
    20   11   12 1
    21   11   13 1
    22   11   17 1
    23   13   14 1
    24   13   15 1
    25   13   16 1
    26   15   41 1
    27   15   42 1
    28   15   43 1
    29   16   44 1
    30   17   18 2
    31   17   19 1
    32   20   45 1
    33   21   22 1
    34   22   23 2
    35   22   24 1
    36   24   29 ar
    37   24   25 ar
    38   25   26 ar
    39   25   34 1
    40   26   27 ar
    41   26   33 1
    42   27   28 ar
    43   27   32 1
    44   28   29 ar
    45   28   31 1
    46   29   30 1
    47   30   46 1
    48   31   47 1
    49   31   48 1
    50   31   49 1
    51   32   50 1
    52   33   51 1
    53   33   52 1
    54   33   53 1
    55   34   54 1
    56   34   55 1
    57   34   56 1
@<TRIPOS>MOLECULE
ZINC39663570
   66    69     0     0     0
SMALL
USER_CHARGES

@<TRIPOS>ATOM
      1 C1          1.6692   -0.8823   -0.8452 C.ar      1 <0>        -0.0072
      2 C2          2.9069   -0.3051   -0.9387 C.ar      1 <0>        -0.2466
      3 C3          3.0795    1.0138   -0.5233 C.ar      1 <0>         0.4339
      4 N1          2.0626    1.7148   -0.0400 N.ar      1 <0>        -0.5457
      5 C4          0.8565    1.1979    0.0670 C.ar      1 <0>         0.2240
      6 C5          0.6114   -0.1178   -0.3301 C.ar      1 <0>        -0.2570
      7 C6         -0.7407   -0.6959   -0.2103 C.2       1 <0>         0.6088
      8 O1         -1.7077    0.0345   -0.1113 O.2       1 <0>        -0.5385
      9 N2         -0.9040   -2.0338   -0.2107 N.am      1 <0>        -0.6149
     10 C7          0.1477   -3.0772   -0.1746 C.3       1 <0>         0.1062
     11 C8         -0.4186   -4.1701    0.7594 C.3       1 <0>        -0.1169
     12 H1         -0.1465   -5.1602    0.3936 H         1 <0>         0.1162
     13 C9         -1.9438   -3.9802    0.7061 C.3       1 <0>        -0.0714
     14 C10        -2.1766   -2.7939   -0.2407 C.3       1 <0>         0.1101
     15 C11        -2.4844   -3.6530    2.0947 C.3       1 <0>        -0.1486
     16 C12        -4.0089   -3.5250    2.0267 C.3       1 <0>        -0.0080
     17 N3         -4.5860   -4.7835    1.5389 N.4       1 <0>        -0.5050
     18 C13        -4.1334   -5.0436    0.1670 C.3       1 <0>        -0.0081
     19 C14        -2.6142   -5.2355    0.1563 C.3       1 <0>        -0.1353
     20 C15         0.0882   -3.9735    2.1649 C.2       1 <0>         0.5081
     21 O2          0.2765   -2.8535    2.5905 O.2       1 <0>        -0.5240
     22 N4          0.3322   -5.0422    2.9490 N.am      1 <0>        -0.7209
     23 C16         0.8248   -4.8510    4.3153 C.3       1 <0>         0.1133
     24 C17         1.0178   -6.2139    4.9833 C.3       1 <0>        -0.1019
     25 C18         1.5323   -6.0142    6.4103 C.3       1 <0>        -0.1827
     26 C19         1.7224   -7.3567    7.0682 C.2       1 <0>         0.4887
     27 O3          1.4697   -8.3784    6.4527 O.co2     1 <0>        -0.7009
     28 O4          2.1288   -7.4210    8.2158 O.co2     1 <0>        -0.6978
     29 N5          4.3302    1.6007   -0.6161 N.pl3     1 <0>        -0.6012
     30 C20         4.5109    3.0410   -0.3750 C.3       1 <0>         0.0848
     31 C21         5.6527    3.2233    0.6314 C.3       1 <0>         0.0453
     32 O5          6.8023    2.5070    0.1738 O.3       1 <0>        -0.3775
     33 C22         6.6108    1.0936    0.0766 C.3       1 <0>         0.0456
     34 C23         5.5189    0.8013   -0.9527 C.3       1 <0>         0.0837
     35 H2          1.5095   -1.9015   -1.1647 H         1 <0>         0.1427
     36 H3          3.7420   -0.8668   -1.3305 H         1 <0>         0.1391
     37 H4          0.0505    1.7964    0.4653 H         1 <0>         0.1674
     38 H5          0.3170   -3.4807   -1.1729 H         1 <0>         0.0897
     39 H6          1.0728   -2.6703    0.2338 H         1 <0>         0.1039
     40 H7         -2.9979   -2.1752    0.1209 H         1 <0>         0.0883
     41 H8         -2.3832   -3.1503   -1.2498 H         1 <0>         0.0827
     42 H9         -2.2168   -4.4514    2.7868 H         1 <0>         0.0970
     43 H10        -2.0553   -2.7123    2.4399 H         1 <0>         0.1269
     44 H11        -4.3997   -3.3075    3.0207 H         1 <0>         0.1378
     45 H12        -4.2753   -2.7157    1.3468 H         1 <0>         0.1330
     46 H13        -4.2927   -5.5408    2.1376 H         1 <0>         0.4299
     47 H14        -4.6159   -5.9454   -0.2097 H         1 <0>         0.1381
     48 H15        -4.3971   -4.1984   -0.4688 H         1 <0>         0.1309
     49 H16        -2.2767   -5.4105   -0.8653 H         1 <0>         0.1204
     50 H17        -2.3510   -6.0908    0.7786 H         1 <0>         0.1000
     51 H18         0.1815   -5.9379    2.6086 H         1 <0>         0.4002
     52 H19         1.7774   -4.3219    4.2874 H         1 <0>         0.0675
     53 H20         0.1013   -4.2668    4.8840 H         1 <0>         0.0646
     54 H21         0.0652   -6.7430    5.0112 H         1 <0>         0.0638
     55 H22         1.7413   -6.7981    4.4146 H         1 <0>         0.0681
     56 H23         2.4849   -5.4852    6.3823 H         1 <0>         0.0610
     57 H24         0.8089   -5.4301    6.9790 H         1 <0>         0.0588
     58 H25         4.7625    3.5410   -1.3103 H         1 <0>         0.0748
     59 H26         3.5920    3.4632    0.0319 H         1 <0>         0.1091
     60 H27         5.8949    4.2824    0.7194 H         1 <0>         0.1091
     61 H28         5.3463    2.8371    1.6036 H         1 <0>         0.0578
     62 H29         7.5422    0.6206   -0.2345 H         1 <0>         0.1112
     63 H30         6.3079    0.6997    1.0468 H         1 <0>         0.0580
     64 H31         5.2673   -0.2590   -0.9282 H         1 <0>         0.0962
     65 H32         5.8738    1.0720   -1.9471 H         1 <0>         0.0815
     66 H33        -5.5927   -4.7179    1.5527 H         1 <0>         0.4317
@<TRIPOS>BOND
     1    1    6 ar
     2    1    2 ar
     3    1   35 1
     4    2    3 ar
     5    2   36 1
     6    3    4 ar
     7    3   29 1
     8    4    5 ar
     9    5    6 ar
    10    5   37 1
    11    6    7 1
    12    7    8 2
    13    7    9 am
    14    9   14 1
    15    9   10 1
    16   10   11 1
    17   10   38 1
    18   10   39 1
    19   11   12 1
    20   11   13 1
    21   11   20 1
    22   13   19 1
    23   13   14 1
    24   13   15 1
    25   14   40 1
    26   14   41 1
    27   15   16 1
    28   15   42 1
    29   15   43 1
    30   16   17 1
    31   16   44 1
    32   16   45 1
    33   17   18 1
    34   17   46 1
    35   17   66 1
    36   18   19 1
    37   18   47 1
    38   18   48 1
    39   19   49 1
    40   19   50 1
    41   20   21 2
    42   20   22 am
    43   22   23 1
    44   22   51 1
    45   23   24 1
    46   23   52 1
    47   23   53 1
    48   24   25 1
    49   24   54 1
    50   24   55 1
    51   25   26 1
    52   25   56 1
    53   25   57 1
    54   26   27 2
    55   26   28 1
    56   29   34 1
    57   29   30 1
    58   30   31 1
    59   30   58 1
    60   30   59 1
    61   31   32 1
    62   31   60 1
    63   31   61 1
    64   32   33 1
    65   33   34 1
    66   33   62 1
    67   33   63 1
    68   34   64 1
    69   34   65 1
@<TRIPOS>MOLECULE
ZINC65739428
   64    65     0     0     0
SMALL
USER_CHARGES

@<TRIPOS>ATOM
      1 C1         -0.0187    1.5258    0.0104 C.3       1 <0>        -0.1488
      2 C2          0.0021   -0.0041    0.0020 C.3       1 <0>        -0.1300
      3 C3          0.7421   -0.5109    1.2415 C.3       1 <0>        -0.0990
      4 C4          0.7628   -2.0407    1.2331 C.3       1 <0>        -0.0999
      5 H1         -0.2478   -2.4383    1.1393 H         1 <0>         0.1247
      6 C5          1.6664   -2.5694    0.0956 C.3       1 <0>        -0.1371
      7 C6          2.4099   -3.7750    0.6998 C.3       1 <0>         0.0211
      8 H2          3.4836   -3.5872    0.6998 H         1 <0>         0.1337
      9 N1          1.9258   -3.9317    2.0885 N.4       1 <0>        -0.3789
     10 C7          1.4505   -2.5868    2.5097 C.3       1 <0>         0.0021
     11 C8          3.0212   -4.3787    2.9594 C.3       1 <0>        -0.0363
     12 C9          2.1063   -5.0174   -0.0973 C.2       1 <0>         0.5683
     13 O1          1.5547   -5.9584    0.4330 O.2       1 <0>        -0.5021
     14 N2          2.4478   -5.0828   -1.3994 N.am      1 <0>        -0.6956
     15 C10         2.1527   -6.2906   -2.1743 C.3       1 <0>         0.1667
     16 H3          1.2106   -6.7200   -1.8332 H         1 <0>         0.1337
     17 C11         2.0418   -5.9307   -3.6572 C.3       1 <0>         0.0697
     18 H4          2.9838   -5.5014   -3.9985 H         1 <0>         0.0500
     19 C12         0.9159   -4.9120   -3.8526 C.3       1 <0>         0.1571
     20 H5          1.1555   -3.9962   -3.3122 H         1 <0>         0.0482
     21 C13         0.7714   -4.6024   -5.3458 C.3       1 <0>         0.0964
     22 H6          1.6891   -4.1433   -5.7134 H         1 <0>         0.0527
     23 C14         0.5122   -5.9079   -6.1039 C.3       1 <0>         0.0740
     24 H7          0.4630   -5.7044   -7.1736 H         1 <0>         0.0536
     25 C15         1.6537   -6.8882   -5.8216 C.3       1 <0>         0.0905
     26 H8          2.5905   -6.4714   -6.1913 H         1 <0>         0.0696
     27 O2          1.7534   -7.1087   -4.4132 O.3       1 <0>        -0.3140
     28 S1          1.3200   -8.4626   -6.6585 S.3       1 <0>        -0.2154
     29 C16         2.8143   -9.4456   -6.3563 C.3       1 <0>        -0.1208
     30 O3         -0.7249   -6.4754   -5.6685 O.3       1 <0>        -0.4860
     31 O4         -0.3241   -3.7066   -5.5445 O.3       1 <0>        -0.5041
     32 O5         -0.3095   -5.4533   -3.3552 O.3       1 <0>        -0.7000
     33 P1         -1.1556   -4.7647   -2.1710 P.3       1 <0>         2.1491
     34 O6         -0.2361   -4.5694   -0.9177 O.2       1 <0>        -1.1733
     35 O7         -1.6871   -3.3714   -2.6511 O.3       1 <0>        -1.1855
     36 O8         -2.3667   -5.6834   -1.7921 O.3       1 <0>        -1.1778
     37 C17         3.2776   -7.3091   -1.9794 C.3       1 <0>        -0.0126
     38 H9          4.2196   -6.8798   -2.3204 H         1 <0>         0.0859
     39 C18         3.3884   -7.6690   -0.4964 C.3       1 <0>        -0.1436
     40 Cl1         2.9144   -8.7956   -2.9330 Cl        1 <0>        -0.1492
     41 H10         1.0039    1.9031    0.0027 H         1 <0>         0.0463
     42 H11        -0.5459    1.8868   -0.8726 H         1 <0>         0.0568
     43 H12        -0.5289    1.8773    0.9072 H         1 <0>         0.0487
     44 H13        -1.0205   -0.3814    0.0098 H         1 <0>         0.0777
     45 H14         0.5123   -0.3556   -0.8948 H         1 <0>         0.0717
     46 H15         1.7647   -0.1336    1.2338 H         1 <0>         0.0601
     47 H16         0.2319   -0.1594    2.1383 H         1 <0>         0.0653
     48 H17         1.0601   -2.8855   -0.7533 H         1 <0>         0.1644
     49 H18         2.3769   -1.8016   -0.2110 H         1 <0>         0.0809
     50 H19         2.2917   -1.9546    2.7938 H         1 <0>         0.1207
     51 H20         0.7347   -2.6671    3.3278 H         1 <0>         0.1271
     52 H21         3.8233   -3.6409    2.9420 H         1 <0>         0.1109
     53 H22         2.6523   -4.4903    3.9790 H         1 <0>         0.1164
     54 H23         3.4006   -5.3364    2.6034 H         1 <0>         0.1160
     55 H24         2.8889   -4.3302   -1.8236 H         1 <0>         0.3902
     56 H25         2.9546   -9.5728   -5.2828 H         1 <0>         0.0870
     57 H26         2.7077  -10.4229   -6.8271 H         1 <0>         0.0970
     58 H27         3.6785   -8.9319   -6.7773 H         1 <0>         0.0714
     59 H28        -0.9529   -7.3061   -6.1080 H         1 <0>         0.3580
     60 H29        -0.4736   -3.4672   -6.4693 H         1 <0>         0.3566
     61 H30         2.4464   -8.0984   -0.1553 H         1 <0>         0.0820
     62 H31         4.1899   -8.3946   -0.3575 H         1 <0>         0.0534
     63 H32         3.6080   -6.7704    0.0801 H         1 <0>         0.0597
     64 H33         1.1637   -4.5922    2.1189 H         1 <0>         0.4442
@<TRIPOS>BOND
     1    1    2 1
     2    1   41 1
     3    1   42 1
     4    1   43 1
     5    2    3 1
     6    2   44 1
     7    2   45 1
     8    3    4 1
     9    3   46 1
    10    3   47 1
    11    4    5 1
    12    4   10 1
    13    4    6 1
    14    6    7 1
    15    6   48 1
    16    6   49 1
    17    7    8 1
    18    7    9 1
    19    7   12 1
    20    9   10 1
    21    9   11 1
    22    9   64 1
    23   10   50 1
    24   10   51 1
    25   11   52 1
    26   11   53 1
    27   11   54 1
    28   12   13 2
    29   12   14 am
    30   14   15 1
    31   14   55 1
    32   15   16 1
    33   15   17 1
    34   15   37 1
    35   17   18 1
    36   17   27 1
    37   17   19 1
    38   19   20 1
    39   19   21 1
    40   19   32 1
    41   21   22 1
    42   21   23 1
    43   21   31 1
    44   23   24 1
    45   23   25 1
    46   23   30 1
    47   25   26 1
    48   25   27 1
    49   25   28 1
    50   28   29 1
    51   29   56 1
    52   29   57 1
    53   29   58 1
    54   30   59 1
    55   31   60 1
    56   32   33 1
    57   33   34 2
    58   33   35 1
    59   33   36 1
    60   37   38 1
    61   37   39 1
    62   37   40 1
    63   39   61 1
    64   39   62 1
    65   39   63 1
@<TRIPOS>MOLECULE
ZINC14952202
   55    58     0     0     0
SMALL
USER_CHARGES
N-(2-chloro-6-methyl-phenyl)-2-[[6-(3-imidazol-1-ylpropylamino)-2-pyridyl]amino]thiazole-5-carboxamide
@<TRIPOS>ATOM
      1 C1          4.1926   -9.3304    0.0923 C.3       1 <0>        -0.1174
      2 C2          5.6206   -9.0514   -0.2998 C.ar      1 <0>        -0.0805
      3 C3          6.5432  -10.0794   -0.3287 C.ar      1 <0>        -0.1028
      4 C4          7.8539   -9.8248   -0.6874 C.ar      1 <0>        -0.0978
      5 C5          8.2466   -8.5406   -1.0185 C.ar      1 <0>        -0.1041
      6 C6          7.3277   -7.5089   -0.9982 C.ar      1 <0>        -0.0219
      7 C7          6.0105   -7.7610   -0.6319 C.ar      1 <0>         0.1330
      8 N1          5.0788   -6.7179   -0.6036 N.am      1 <0>        -0.6637
      9 C8          5.3513   -5.5892    0.0807 C.2       1 <0>         0.6009
     10 O1          6.4469   -5.4351    0.5892 O.2       1 <0>        -0.4702
     11 C9          4.3314   -4.5497    0.2124 C.2       1 <0>        -0.2490
     12 C10         4.3923   -3.3253    0.8627 C.2       1 <0>         0.1501
     13 N2          3.3281   -2.5662    0.8336 N.2       1 <0>        -0.5825
     14 C11         2.2238   -2.9439    0.2073 C.2       1 <0>         0.2681
     15 S1          2.6580   -4.5063   -0.4133 S.3       1 <0>         0.2230
     16 N3          1.0266   -2.2678    0.0841 N.pl3     1 <0>        -0.5862
     17 C12         0.9075   -0.9692    0.5705 C.ar      1 <0>         0.4429
     18 C13        -0.2623   -0.2543    0.3429 C.ar      1 <0>        -0.2179
     19 C14        -0.3721    1.0377    0.8307 C.ar      1 <0>         0.0729
     20 C15         0.6951    1.5742    1.5325 C.ar      1 <0>        -0.2309
     21 C16         1.8370    0.8054    1.7246 C.ar      1 <0>         0.4666
     22 N4          2.9131    1.3356    2.4266 N.pl3     1 <0>        -0.7028
     23 C17         2.8399    2.6981    2.9601 C.3       1 <0>         0.1132
     24 C18         4.1455    3.0333    3.6838 C.3       1 <0>        -0.1545
     25 C19         4.0691    4.4562    4.2410 C.3       1 <0>         0.1118
     26 N5          5.3193    4.7771    4.9339 N.pl3     1 <0>        -0.4672
     27 C20         5.5896    4.5693    6.2596 C.2       1 <0>        -0.0595
     28 C21         6.8468    5.0021    6.4734 C.2       1 <0>        -0.0211
     29 N6          7.3276    5.4701    5.3120 N.2       1 <0>        -0.4888
     30 C22         6.4182    5.3387    4.3854 C.2       1 <0>         0.1828
     31 Cl1         7.8190   -5.8987   -1.4220 Cl        1 <0>        -0.0463
     32 H1          3.6137   -9.5800   -0.7969 H         1 <0>         0.0780
     33 H2          4.1643  -10.1667    0.7908 H         1 <0>         0.0793
     34 H3          3.7667   -8.4462    0.5667 H         1 <0>         0.0634
     35 H4          6.2401  -11.0833   -0.0704 H         1 <0>         0.1381
     36 H5          8.5728  -10.6304   -0.7087 H         1 <0>         0.1399
     37 H6          9.2712   -8.3451   -1.2983 H         1 <0>         0.1409
     38 H7          4.2365   -6.8069   -1.0765 H         1 <0>         0.4086
     39 H8          5.2890   -3.0097    1.3754 H         1 <0>         0.2036
     40 H9          0.2684   -2.6978   -0.3414 H         1 <0>         0.4614
     41 H10        -1.0766   -0.7008   -0.2084 H         1 <0>         0.1833
     42 H11        -1.2688    1.6159    0.6636 H         1 <0>         0.1792
     43 H12         0.6407    2.5787    1.9252 H         1 <0>         0.1793
     44 H13         3.7126    0.8036    2.5633 H         1 <0>         0.4186
     45 H14         2.6875    3.4012    2.1413 H         1 <0>         0.0941
     46 H15         2.0076    2.7699    3.6603 H         1 <0>         0.0936
     47 H16         4.2979    2.3302    4.5027 H         1 <0>         0.0859
     48 H17         4.9778    2.9615    2.9836 H         1 <0>         0.0865
     49 H18         3.9167    5.1593    3.4221 H         1 <0>         0.1017
     50 H19         3.2368    4.5280    4.9411 H         1 <0>         0.0995
     51 H20         4.9235    4.1387    6.9927 H         1 <0>         0.1755
     52 H21         7.3737    4.9809    7.4159 H         1 <0>         0.1726
     53 H22         6.5266    5.6300    3.3512 H         1 <0>         0.2050
     54 N7          1.9759   -0.4693    1.2570 N.ar      1 <0>        -0.5526
     55 H23         2.8302   -1.0174    1.4118 H         1 <0>         0.4644
@<TRIPOS>BOND
     1    1    2 1
     2    1   32 1
     3    1   33 1
     4    1   34 1
     5    2    7 ar
     6    2    3 ar
     7    3    4 ar
     8    3   35 1
     9    4    5 ar
    10    4   36 1
    11    5    6 ar
    12    5   37 1
    13    6    7 ar
    14    6   31 1
    15    7    8 1
    16    8    9 am
    17    8   38 1
    18    9   10 2
    19    9   11 1
    20   11   15 1
    21   11   12 2
    22   12   13 1
    23   12   39 1
    24   13   14 2
    25   14   15 1
    26   14   16 1
    27   16   17 1
    28   16   40 1
    29   17   18 ar
    30   17   54 ar
    31   18   19 ar
    32   18   41 1
    33   19   20 ar
    34   19   42 1
    35   20   21 ar
    36   20   43 1
    37   21   22 1
    38   21   54 ar
    39   22   23 1
    40   22   44 1
    41   23   24 1
    42   23   45 1
    43   23   46 1
    44   24   25 1
    45   24   47 1
    46   24   48 1
    47   25   26 1
    48   25   49 1
    49   25   50 1
    50   26   30 1
    51   26   27 1
    52   27   28 2
    53   27   51 1
    54   28   29 1
    55   28   52 1
    56   29   30 2
    57   30   53 1
    58   54   55 1
@<TRIPOS>MOLECULE
ZINC28120702
   62    65     0     0     0
SMALL
USER_CHARGES
3-(1,3-benzothiazol-2-yl)-8-[(bis(2-hydroxyethyl)amino)methyl]-2,6-diethyl-7-hydroxy-chromen-4-one
@<TRIPOS>ATOM
      1 C1          6.6248    2.1358   -1.5209 C.3       1 <0>        -0.1491
      2 C2          6.0915    2.0822   -0.0878 C.3       1 <0>        -0.0820
      3 C3          4.7398    1.4160   -0.0794 C.ar      1 <0>        -0.1313
      4 C4          3.6064    2.1772   -0.1267 C.ar      1 <0>         0.0385
      5 C5          2.3560    1.5585   -0.1188 C.ar      1 <0>        -0.2368
      6 C6          1.1121    2.3481   -0.1693 C.2       1 <0>         0.4323
      7 O1          1.1295    3.5656   -0.2201 O.2       1 <0>        -0.4284
      8 C7         -0.1544    1.5928   -0.1561 C.2       1 <0>        -0.2061
      9 C8         -0.1032    0.2331   -0.0988 C.2       1 <0>         0.2117
     10 O2          1.0476   -0.4398   -0.0547 O.3       1 <0>        -0.2214
     11 C9          2.2560    0.1572   -0.0624 C.ar      1 <0>         0.2047
     12 C10         3.4177   -0.6015   -0.0152 C.ar      1 <0>        -0.2711
     13 C11         4.6518    0.0270   -0.0238 C.ar      1 <0>         0.2478
     14 O3          5.7859   -0.7174    0.0225 O.3       1 <0>        -0.4744
     15 C12         3.3361   -2.1051    0.0461 C.3       1 <0>         0.0490
     16 N1          3.3282   -2.6510   -1.3176 N.4       1 <0>        -0.4031
     17 C13         4.6077   -2.3978   -1.9935 C.3       1 <0>        -0.0266
     18 C14         4.4500   -2.6484   -3.4945 C.3       1 <0>         0.0635
     19 O4          3.5275   -1.7037   -4.0408 O.3       1 <0>        -0.6090
     20 C15         3.0126   -4.0857   -1.3085 C.3       1 <0>        -0.0101
     21 C16         1.5146   -4.2768   -1.0628 C.3       1 <0>         0.0570
     22 O5          0.7792   -3.7443   -2.1663 O.3       1 <0>        -0.6075
     23 C17        -1.3962   -0.5409   -0.0851 C.3       1 <0>        -0.1002
     24 C18        -1.8132   -0.8627   -1.5215 C.3       1 <0>        -0.1388
     25 C19        -1.4511    2.2960   -0.2100 C.2       1 <0>         0.1944
     26 N2         -2.6656    1.7889   -0.2180 N.2       1 <0>        -0.4980
     27 C20        -3.7711    2.5586   -0.2666 C.ar      1 <0>         0.0695
     28 C21        -5.1245    2.1448   -0.2774 C.ar      1 <0>        -0.0586
     29 C22        -6.1316    3.0567   -0.3351 C.ar      1 <0>        -0.1104
     30 C23        -5.8782    4.4202   -0.3864 C.ar      1 <0>        -0.0851
     31 C24        -4.5695    4.8667   -0.3783 C.ar      1 <0>        -0.0679
     32 C25        -3.5452    3.9542   -0.3198 C.ar      1 <0>        -0.1541
     33 S1         -1.7717    4.0526   -0.2888 S.3       1 <0>         0.0728
     34 H1          7.6115    2.6221   -1.5270 H         1 <0>         0.0681
     35 H2          5.9289    2.7104   -2.1498 H         1 <0>         0.0578
     36 H3          6.7174    1.1134   -1.9161 H         1 <0>         0.0536
     37 H4          6.7874    1.5076    0.5411 H         1 <0>         0.0854
     38 H5          5.9989    3.1045    0.3075 H         1 <0>         0.0841
     39 H6          3.6781    3.2539   -0.1705 H         1 <0>         0.1625
     40 H7          5.7222   -1.8147    0.0665 H         1 <0>         0.4229
     41 H8          4.2060   -2.4975    0.5931 H         1 <0>         0.1325
     42 H9          2.4125   -2.4014    0.5650 H         1 <0>         0.1499
     43 H10         4.9106   -1.3537   -1.8259 H         1 <0>         0.1393
     44 H11         5.3764   -3.0721   -1.5880 H         1 <0>         0.1415
     45 H12         5.4259   -2.5363   -3.9895 H         1 <0>         0.0900
     46 H13         4.0709   -3.6679   -3.6582 H         1 <0>         0.0672
     47 H14         3.2857   -1.7283   -5.1136 H         1 <0>         0.4447
     48 H15         3.2843   -4.5270   -2.2788 H         1 <0>         0.1387
     49 H16         3.5816   -4.5813   -0.5081 H         1 <0>         0.1415
     50 H17         1.2941   -5.3494   -0.9586 H         1 <0>         0.0912
     51 H18         1.2243   -3.7515   -0.1410 H         1 <0>         0.0661
     52 H19        -0.3198   -3.7910   -2.1687 H         1 <0>         0.4417
     53 H20        -1.2570   -1.4774    0.4748 H         1 <0>         0.0880
     54 H21        -2.1794    0.0620    0.3977 H         1 <0>         0.1511
     55 H22        -2.7570   -1.4277   -1.5115 H         1 <0>         0.0780
     56 H23        -1.0300   -1.4656   -2.0043 H         1 <0>         0.0553
     57 H24        -1.9524    0.0738   -2.0814 H         1 <0>         0.0648
     58 H25        -5.3603    1.0916   -0.2385 H         1 <0>         0.1330
     59 H26        -7.1548    2.7110   -0.3416 H         1 <0>         0.1372
     60 H27        -6.6948    5.1254   -0.4325 H         1 <0>         0.1424
     61 H28        -4.3549    5.9245   -0.4174 H         1 <0>         0.1367
     62 H29         2.5389   -2.1347   -1.8837 H         1 <0>         0.4637
@<TRIPOS>BOND
     1    1    2 1
     2    1   34 1
     3    1   35 1
     4    1   36 1
     5    2    3 1
     6    2   37 1
     7    2   38 1
     8    3   13 ar
     9    3    4 ar
    10    4    5 ar
    11    4   39 1
    12    5   11 ar
    13    5    6 1
    14    6    7 2
    15    6    8 1
    16    8    9 2
    17    8   25 1
    18    9   10 1
    19    9   23 1
    20   10   11 1
    21   11   12 ar
    22   12   13 ar
    23   12   15 1
    24   13   14 1
    25   14   40 1
    26   15   16 1
    27   15   41 1
    28   15   42 1
    29   16   17 1
    30   16   20 1
    31   16   62 1
    32   17   18 1
    33   17   43 1
    34   17   44 1
    35   18   19 1
    36   18   45 1
    37   18   46 1
    38   19   47 1
    39   20   21 1
    40   20   48 1
    41   20   49 1
    42   21   22 1
    43   21   50 1
    44   21   51 1
    45   22   52 1
    46   23   24 1
    47   23   53 1
    48   23   54 1
    49   24   55 1
    50   24   56 1
    51   24   57 1
    52   25   33 1
    53   25   26 2
    54   26   27 1
    55   27   32 ar
    56   27   28 ar
    57   28   29 ar
    58   28   58 1
    59   29   30 ar
    60   29   59 1
    61   30   31 ar
    62   30   60 1
    63   31   32 ar
    64   31   61 1
    65   32   33 1
@<TRIPOS>MOLECULE
ZINC39599024
   73    77     0     0     0
SMALL
USER_CHARGES

@<TRIPOS>ATOM
      1 C1          0.0128    1.4116    0.7350 C.3       1 <0>        -0.1492
      2 C2         -0.0222    0.0670    0.0058 C.3       1 <0>        -0.0941
      3 C3         -1.4290   -0.4732    0.0154 C.ar      1 <0>        -0.0447
      4 C4         -1.8491   -1.2820    1.0565 C.ar      1 <0>        -0.1238
      5 C5         -3.1357   -1.7798    1.0713 C.ar      1 <0>        -0.0541
      6 C6         -4.0141   -1.4659    0.0331 C.ar      1 <0>        -0.1494
      7 C7         -3.5839   -0.6495   -1.0141 C.ar      1 <0>        -0.0912
      8 C8         -2.2965   -0.1537   -1.0139 C.ar      1 <0>        -0.1248
      9 C9         -5.3941   -1.9963    0.0423 C.2       1 <0>         0.5910
     10 O1         -5.9179   -2.3094    1.0935 O.2       1 <0>        -0.5281
     11 N1         -6.0714   -2.1327   -1.1150 N.am      1 <0>        -0.6206
     12 C10        -5.5654   -1.9292   -2.4929 C.3       1 <0>         0.1023
     13 C11        -6.2200   -3.0584   -3.3199 C.3       1 <0>        -0.1153
     14 H1         -5.5469   -3.9124   -3.3955 H         1 <0>         0.1132
     15 C12        -7.4835   -3.4406   -2.5310 C.3       1 <0>        -0.0724
     16 C13        -7.4890   -2.5265   -1.2972 C.3       1 <0>         0.1082
     17 C14        -7.4139   -4.9016   -2.0972 C.3       1 <0>        -0.1340
     18 C15        -8.7060   -5.2737   -1.3644 C.3       1 <0>        -0.0112
     19 N2         -9.8539   -5.0607   -2.2542 N.4       1 <0>        -0.5042
     20 C16        -9.9682   -3.6369   -2.5923 C.3       1 <0>        -0.0077
     21 C17        -8.7293   -3.1955   -3.3768 C.3       1 <0>        -0.1468
     22 C18        -6.5872   -2.5578   -4.6931 C.2       1 <0>         0.5190
     23 O2         -6.7917   -1.3760   -4.8731 O.2       1 <0>        -0.5192
     24 N3         -6.6885   -3.4234   -5.7211 N.am      1 <0>        -0.7283
     25 C19        -7.0455   -2.9368   -7.0560 C.3       1 <0>         0.1198
     26 C20        -7.0920   -4.1138   -8.0324 C.3       1 <0>        -0.0477
     27 C21        -7.4593   -3.6133   -9.4055 C.2       1 <0>        -0.1879
     28 C22        -6.5409   -3.0690  -10.4088 C.ar      1 <0>        -0.0604
     29 C23        -5.1625   -2.8484  -10.4423 C.ar      1 <0>        -0.1173
     30 C24        -4.5861   -2.3044  -11.5730 C.ar      1 <0>         0.1082
     31 C25        -5.3732   -1.9773  -12.6738 C.ar      1 <0>        -0.1756
     32 C26        -6.7337   -2.1901  -12.6516 C.ar      1 <0>        -0.0861
     33 C27        -7.3333   -2.7373  -11.5226 C.ar      1 <0>         0.0636
     34 N4         -8.6355   -3.0618  -11.2052 N.pl3     1 <0>        -0.5925
     35 C28        -8.6890   -3.5871   -9.9431 C.2       1 <0>         0.0745
     36 O3         -3.2442   -2.0870  -11.6112 O.3       1 <0>        -0.3186
     37 C29        -2.7126   -1.5217  -12.8112 C.3       1 <0>         0.0266
     38 H2          1.0303    1.8023    0.7281 H         1 <0>         0.0640
     39 H3         -0.6501    2.1153    0.2315 H         1 <0>         0.0571
     40 H4         -0.3170    1.2751    1.7649 H         1 <0>         0.0577
     41 H5          0.3076    0.2035   -1.0241 H         1 <0>         0.0775
     42 H6          0.6407   -0.6367    0.5093 H         1 <0>         0.0779
     43 H7         -1.1683   -1.5244    1.8590 H         1 <0>         0.1330
     44 H8         -3.4623   -2.4113    1.8843 H         1 <0>         0.1342
     45 H9         -4.2588   -0.4030   -1.8205 H         1 <0>         0.1336
     46 H10        -1.9637    0.4817   -1.8214 H         1 <0>         0.1315
     47 H11        -5.8732   -0.9541   -2.8706 H         1 <0>         0.1027
     48 H12        -4.4795   -2.0213   -2.5165 H         1 <0>         0.1015
     49 H13        -7.8481   -3.0703   -0.4235 H         1 <0>         0.0903
     50 H14        -8.1074   -1.6478   -1.4803 H         1 <0>         0.0846
     51 H15        -7.2978   -5.5368   -2.9754 H         1 <0>         0.0967
     52 H16        -6.5636   -5.0430   -1.4301 H         1 <0>         0.1184
     53 H17        -8.6662   -6.3218   -1.0676 H         1 <0>         0.1398
     54 H18        -8.8132   -4.6492   -0.4775 H         1 <0>         0.1343
     55 H19        -9.7265   -5.5966   -3.0996 H         1 <0>         0.4274
     56 H20       -10.8586   -3.4785   -3.2007 H         1 <0>         0.1390
     57 H21       -10.0456   -3.0512   -1.6763 H         1 <0>         0.1331
     58 H22        -8.8066   -2.1339   -3.6117 H         1 <0>         0.1249
     59 H23        -8.6604   -3.7692   -4.3010 H         1 <0>         0.0988
     60 H24        -6.5250   -4.3686   -5.5771 H         1 <0>         0.3995
     61 H25        -8.0236   -2.4572   -7.0183 H         1 <0>         0.0709
     62 H26        -6.3000   -2.2158   -7.3913 H         1 <0>         0.0756
     63 H27        -6.1139   -4.5935   -8.0701 H         1 <0>         0.0783
     64 H28        -7.8375   -4.8348   -7.6971 H         1 <0>         0.0724
     65 H29        -4.5510   -3.1015   -9.5889 H         1 <0>         0.1281
     66 H30        -4.9125   -1.5523  -13.5534 H         1 <0>         0.1346
     67 H31        -7.3348   -1.9319  -13.5109 H         1 <0>         0.1263
     68 H32        -9.5880   -3.9279   -9.4512 H         1 <0>         0.1686
     69 H33        -9.3990   -2.9396  -11.7909 H         1 <0>         0.4188
     70 H34        -2.9261   -2.1838  -13.6503 H         1 <0>         0.0559
     71 H35        -3.1721   -0.5495  -12.9895 H         1 <0>         0.0558
     72 H36        -1.6342   -1.4007  -12.7091 H         1 <0>         0.1017
     73 H37       -10.6975   -5.3638   -1.7910 H         1 <0>         0.4341
@<TRIPOS>BOND
     1    1    2 1
     2    1   38 1
     3    1   39 1
     4    1   40 1
     5    2    3 1
     6    2   41 1
     7    2   42 1
     8    3    8 ar
     9    3    4 ar
    10    4    5 ar
    11    4   43 1
    12    5    6 ar
    13    5   44 1
    14    6    7 ar
    15    6    9 1
    16    7    8 ar
    17    7   45 1
    18    8   46 1
    19    9   10 2
    20    9   11 am
    21   11   16 1
    22   11   12 1
    23   12   13 1
    24   12   47 1
    25   12   48 1
    26   13   14 1
    27   13   15 1
    28   13   22 1
    29   15   21 1
    30   15   16 1
    31   15   17 1
    32   16   49 1
    33   16   50 1
    34   17   18 1
    35   17   51 1
    36   17   52 1
    37   18   19 1
    38   18   53 1
    39   18   54 1
    40   19   20 1
    41   19   55 1
    42   19   73 1
    43   20   21 1
    44   20   56 1
    45   20   57 1
    46   21   58 1
    47   21   59 1
    48   22   23 2
    49   22   24 am
    50   24   25 1
    51   24   60 1
    52   25   26 1
    53   25   61 1
    54   25   62 1
    55   26   63 1
    56   26   64 1
    57   26   27 1
    58   27   28 1
    59   27   35 2
    60   28   29 ar
    61   28   33 ar
    62   29   30 ar
    63   29   65 1
    64   30   31 ar
    65   30   36 1
    66   31   32 ar
    67   31   66 1
    68   32   33 ar
    69   32   67 1
    70   33   34 1
    71   34   69 1
    72   34   35 1
    73   35   68 1
    74   36   37 1
    75   37   70 1
    76   37   71 1
    77   37   72 1
@<TRIPOS>MOLECULE
ZINC59170402
   55    58     0     0     0
SMALL
USER_CHARGES

@<TRIPOS>ATOM
      1 C1          0.4353    1.5291   -0.0442 C.3       1 <0>        -0.1226
      2 C2          0.4296    0.0221   -0.0469 C.ar      1 <0>        -0.0766
      3 C3          1.2218   -0.6692   -0.9451 C.ar      1 <0>        -0.1003
      4 C4          1.2186   -2.0503   -0.9505 C.ar      1 <0>        -0.1289
      5 C5          0.4188   -2.7449   -0.0521 C.ar      1 <0>         0.1073
      6 C6         -0.3753   -2.0475    0.8491 C.ar      1 <0>        -0.1056
      7 C7         -0.3635   -0.6665    0.8527 C.ar      1 <0>        -0.1011
      8 N1          0.4129   -4.1432   -0.0552 N.am      1 <0>        -0.6723
      9 C8          0.2773   -4.8191    1.1029 C.2       1 <0>         0.5704
     10 O1          0.0933   -4.2143    2.1421 O.2       1 <0>        -0.4698
     11 C9          0.3521   -6.2897    1.1102 C.2       1 <0>        -0.2705
     12 C10         0.3565   -7.0091    2.2981 C.2       1 <0>         0.1742
     13 C11         0.4327   -8.4687    2.2008 C.ar      1 <0>        -0.1338
     14 C12         0.1768   -9.2759    3.3166 C.ar      1 <0>        -0.0595
     15 C13         0.2474  -10.6357    3.2023 C.ar      1 <0>        -0.0712
     16 C14         0.5717  -11.2264    1.9899 C.ar      1 <0>        -0.1270
     17 C15         0.8318  -10.4488    0.8744 C.ar      1 <0>         0.1448
     18 C16         0.7661   -9.0617    0.9699 C.ar      1 <0>         0.0810
     19 O2          1.0238   -8.2813   -0.1082 O.3       1 <0>        -0.1867
     20 C17         0.4193   -7.0640   -0.1452 C.2       1 <0>         0.5196
     21 N2         -0.0858   -6.5883   -1.2629 N.pl3     1 <0>        -0.5143
     22 C18         0.1214   -7.2486   -2.4423 C.ar      1 <0>         0.0850
     23 C19         1.3921   -7.7337   -2.7613 C.ar      1 <0>        -0.1114
     24 C20         1.5937   -8.3988   -3.9527 C.ar      1 <0>         0.0041
     25 C21         0.5410   -8.5859   -4.8311 C.ar      1 <0>        -0.6498
     26 C22        -0.7202   -8.1077   -4.5221 C.ar      1 <0>         0.0058
     27 C23        -0.9380   -7.4463   -3.3315 C.ar      1 <0>        -0.1102
     28 S1          0.8080   -9.4367   -6.3509 S.o2      1 <0>         2.6977
     29 O3         -0.2103   -9.0042   -7.2427 O.2       1 <0>        -0.9458
     30 O4          2.1905   -9.3058   -6.6521 O.2       1 <0>        -0.9434
     31 N3          0.5358  -11.0451   -6.0659 N.pl3     1 <0>        -1.2433
     32 O5          1.1501  -11.0375   -0.3093 O.3       1 <0>        -0.3014
     33 C24         1.1984  -12.4655   -0.3314 C.3       1 <0>         0.0161
     34 H1          1.2090    1.8883    0.6343 H         1 <0>         0.0772
     35 H2          0.6375    1.8934   -1.0514 H         1 <0>         0.0716
     36 H3         -0.5366    1.8955    0.2864 H         1 <0>         0.0720
     37 H4          1.8434   -0.1285   -1.6434 H         1 <0>         0.1338
     38 H5          1.8370   -2.5896   -1.6528 H         1 <0>         0.1257
     39 H6         -0.9986   -2.5846    1.5487 H         1 <0>         0.1402
     40 H7         -0.9774   -0.1236    1.5561 H         1 <0>         0.1337
     41 H8          0.5063   -4.6268   -0.8909 H         1 <0>         0.3918
     42 H9          0.3063   -6.5121    3.2556 H         1 <0>         0.2046
     43 H10        -0.0754   -8.8247    4.2649 H         1 <0>         0.1653
     44 H11         0.0494  -11.2561    4.0639 H         1 <0>         0.1616
     45 H12         0.6220  -12.3027    1.9155 H         1 <0>         0.1652
     46 H13         2.2147   -7.5881   -2.0767 H         1 <0>         0.1483
     47 H14         2.5755   -8.7740   -4.2007 H         1 <0>         0.1659
     48 H15        -1.5371   -8.2571   -5.2126 H         1 <0>         0.1674
     49 H16        -1.9240   -7.0781   -3.0892 H         1 <0>         0.1561
     50 H17         0.2037  -11.6143   -6.7776 H         1 <0>         0.4286
     51 H18         0.7086  -11.4180   -5.1873 H         1 <0>         0.4172
     52 H19         1.9467  -12.8148    0.3799 H         1 <0>         0.0704
     53 H20         0.2223  -12.8663   -0.0581 H         1 <0>         0.0689
     54 H21         1.4629  -12.8046   -1.3330 H         1 <0>         0.1176
     55 H22        -0.6052   -5.7691   -1.2504 H         1 <0>         0.4564
@<TRIPOS>BOND
     1    1    2 1
     2    1   34 1
     3    1   35 1
     4    1   36 1
     5    2    7 ar
     6    2    3 ar
     7    3    4 ar
     8    3   37 1
     9    4    5 ar
    10    4   38 1
    11    5    6 ar
    12    5    8 1
    13    6    7 ar
    14    6   39 1
    15    7   40 1
    16    8    9 am
    17    8   41 1
    18    9   10 2
    19    9   11 1
    20   11   20 1
    21   11   12 2
    22   12   13 1
    23   12   42 1
    24   13   18 ar
    25   13   14 ar
    26   14   15 ar
    27   14   43 1
    28   15   16 ar
    29   15   44 1
    30   16   17 ar
    31   16   45 1
    32   17   18 ar
    33   17   32 1
    34   18   19 1
    35   19   20 1
    36   20   21 2
    37   21   22 1
    38   21   55 1
    39   22   27 ar
    40   22   23 ar
    41   23   24 ar
    42   23   46 1
    43   24   25 ar
    44   24   47 1
    45   25   26 ar
    46   25   28 1
    47   26   27 ar
    48   26   48 1
    49   27   49 1
    50   28   29 2
    51   28   30 2
    52   28   31 1
    53   31   50 1
    54   31   51 1
    55   32   33 1
    56   33   52 1
    57   33   53 1
    58   33   54 1
@<TRIPOS>MOLECULE
ZINC64652821
   56    59     0     0     0
SMALL
USER_CHARGES

@<TRIPOS>ATOM
      1 C1          0.9663    1.5755   -1.8452 C.ar      1 <0>        -0.1505
      2 C2          2.2461    2.1434   -1.9107 C.ar      1 <0>         0.0549
      3 C3          3.3724    1.4287   -1.7041 C.ar      1 <0>        -0.2099
      4 C4          3.2980    0.0401   -1.4058 C.ar      1 <0>         0.3279
      5 N1          4.2282   -0.8531   -1.1701 N.pl3     1 <0>        -0.5851
      6 C5          3.5821   -2.1461   -0.9187 C.3       1 <0>         0.0603
      7 C6          2.0952   -1.8973   -1.0396 C.2       1 <0>         0.0713
      8 C7          1.9576   -0.5836   -1.3308 C.ar      1 <0>        -0.1678
      9 C8          0.7833    0.2645   -1.5682 C.ar      1 <0>        -0.0122
     10 C9          0.9906   -2.9084   -0.8707 C.3       1 <0>        -0.1053
     11 C10         0.7659   -3.6439   -2.1934 C.3       1 <0>         0.1298
     12 N2         -0.3079   -4.6269   -2.0292 N.am      1 <0>        -0.7369
     13 C11        -0.6813   -5.3973   -3.0701 C.2       1 <0>         0.5709
     14 O1         -0.1260   -5.2763   -4.1472 O.2       1 <0>        -0.5647
     15 C12        -1.7179   -6.3463   -2.9116 C.2       1 <0>        -0.3524
     16 C13        -2.1717   -7.0341   -3.9795 C.2       1 <0>         0.2534
     17 C14        -3.1756   -8.1735   -3.8474 C.3       1 <0>        -0.0590
     18 S1         -2.7057   -9.1748   -5.3246 S.3       1 <0>        -0.2266
     19 C15        -1.8791   -7.8186   -6.2587 C.3       1 <0>         0.1846
     20 H1         -2.4976   -7.4892   -7.0936 H         1 <0>         0.1546
     21 N3         -1.7724   -6.7568   -5.2379 N.pl3     1 <0>        -0.6938
     22 S2         -0.2406   -8.3386   -6.8380 S.3       1 <0>        -0.0901
     23 C16         0.6422   -8.7826   -5.3168 C.3       1 <0>        -0.1350
     24 C17         2.0369   -9.2386   -5.6602 C.2       1 <0>         0.5339
     25 O2          2.3997   -9.2618   -6.8174 O.2       1 <0>        -0.4927
     26 N4          2.8811   -9.6207   -4.6816 N.am      1 <0>        -0.6688
     27 C18         4.2095   -9.9384   -4.9877 C.ar      1 <0>         0.1486
     28 C19         4.8716  -10.9259   -4.2702 C.ar      1 <0>        -0.1311
     29 C20         6.1823  -11.2374   -4.5742 C.ar      1 <0>        -0.0886
     30 C21         6.8358  -10.5664   -5.5928 C.ar      1 <0>        -0.0482
     31 C22         6.1783   -9.5819   -6.3094 C.ar      1 <0>        -0.0891
     32 C23         4.8658   -9.2705   -6.0132 C.ar      1 <0>        -0.1095
     33 Cl1         8.4835  -10.9599   -5.9721 Cl        1 <0>        -0.0635
     34 H2          0.1035    2.2023   -2.0160 H         1 <0>         0.1581
     35 H3          2.3347    3.1959   -2.1362 H         1 <0>         0.1613
     36 H4          4.3353    1.9139   -1.7661 H         1 <0>         0.1609
     37 H5          3.9023   -2.8769   -1.6614 H         1 <0>         0.1741
     38 H6          3.8237   -2.4982    0.0842 H         1 <0>         0.1747
     39 H7         -0.2120   -0.1523   -1.5223 H         1 <0>         0.1604
     40 H8          1.2696   -3.6258   -0.0989 H         1 <0>         0.1181
     41 H9          0.0728   -2.3984   -0.5781 H         1 <0>         0.1156
     42 H10         0.4869   -2.9266   -2.9652 H         1 <0>         0.0760
     43 H11         1.6837   -4.1539   -2.4860 H         1 <0>         0.0744
     44 H12        -0.7502   -4.7232   -1.1713 H         1 <0>         0.4056
     45 H13        -3.0226   -8.7323   -2.9241 H         1 <0>         0.1374
     46 H14        -2.1462   -6.5202   -1.9355 H         1 <0>         0.1407
     47 H15        -4.2005   -7.8105   -3.9235 H         1 <0>         0.1290
     48 H16        -1.4215   -5.8815   -5.4651 H         1 <0>         0.4305
     49 H17         0.6952   -7.9138   -4.6607 H         1 <0>         0.1204
     50 H18         0.1109   -9.5884   -4.8104 H         1 <0>         0.1253
     51 H19         2.5682   -9.6755   -3.7651 H         1 <0>         0.4135
     52 H20         4.3621  -11.4496   -3.4749 H         1 <0>         0.1370
     53 H21         6.6977  -12.0051   -4.0162 H         1 <0>         0.1405
     54 H22         6.6907   -9.0594   -7.1037 H         1 <0>         0.1386
     55 H23         4.3517   -8.5052   -6.5757 H         1 <0>         0.1426
     56 H24         5.1838   -0.6871   -1.1635 H         1 <0>         0.4562
@<TRIPOS>BOND
     1    1    9 ar
     2    1    2 ar
     3    1   34 1
     4    2    3 ar
     5    2   35 1
     6    3    4 ar
     7    3   36 1
     8    4    8 ar
     9    4    5 2
    10    5    6 1
    11    5   56 1
    12    6    7 1
    13    6   37 1
    14    6   38 1
    15    7    8 2
    16    7   10 1
    17    8    9 ar
    18    9   39 1
    19   10   11 1
    20   10   40 1
    21   10   41 1
    22   11   12 1
    23   11   42 1
    24   11   43 1
    25   12   44 1
    26   12   13 am
    27   13   14 2
    28   13   15 1
    29   15   46 1
    30   15   16 2
    31   16   17 1
    32   16   21 1
    33   17   18 1
    34   17   47 1
    35   17   45 1
    36   18   19 1
    37   19   20 1
    38   19   22 1
    39   19   21 1
    40   21   48 1
    41   22   23 1
    42   23   24 1
    43   23   49 1
    44   23   50 1
    45   24   25 2
    46   24   26 am
    47   26   27 1
    48   26   51 1
    49   27   32 ar
    50   27   28 ar
    51   28   29 ar
    52   28   52 1
    53   29   30 ar
    54   29   53 1
    55   30   31 ar
    56   30   33 1
    57   31   32 ar
    58   31   54 1
    59   32   55 1
@<TRIPOS>MOLECULE
ZINC14766295
   58    59     0     0     0
SMALL
USER_CHARGES
[2-[[(4S)-4-ethyl-4-methyl-2,5-dioxo-imidazolidin-1-yl]amino]-2-oxo-ethyl] (2S)-2-[(4-acetamidophenyl)sulfonylamino]propanoate
@<TRIPOS>ATOM
      1 C1         -0.6253   -1.3602    0.4909 C.3       1 <0>        -0.1543
      2 C2         -0.7877    0.1612    0.4896 C.3       1 <0>        -0.1187
      3 C3          0.5910    0.8213    0.5552 C.3       1 <0>         0.1345
      4 C4          0.4600    2.3209    0.7336 C.2       1 <0>         0.5323
      5 O1         -0.0709    3.1048   -0.0237 O.2       1 <0>        -0.4461
      6 N1          1.0571    2.6015    1.9087 N.am      1 <0>        -0.3747
      7 C5          1.5422    1.4992    2.4914 C.2       1 <0>         0.7075
      8 O2          2.1235    1.4993    3.5588 O.2       1 <0>        -0.5219
      9 N2          1.3147    0.3908    1.7639 N.am      1 <0>        -0.7089
     10 N3          1.1582    3.8887    2.4525 N.am      1 <0>        -0.5028
     11 C6          2.3353    4.5442    2.4182 C.2       1 <0>         0.5228
     12 O3          3.3071    4.0198    1.9166 O.2       1 <0>        -0.4841
     13 C7          2.4441    5.9288    3.0031 C.3       1 <0>         0.0622
     14 O4          3.8026    6.4162    2.8440 O.3       1 <0>        -0.3256
     15 C8          4.0686    7.6443    3.3159 C.2       1 <0>         0.4636
     16 O5          3.1953    8.2907    3.8445 O.2       1 <0>        -0.4884
     17 C9          5.4566    8.2169    3.1865 C.3       1 <0>         0.1703
     18 H1          5.7288    8.2751    2.1326 H         1 <0>         0.1248
     19 C10         6.4508    7.3153    3.9210 C.3       1 <0>        -0.1729
     20 N4          5.4880    9.5587    3.7738 N.pl3     1 <0>        -1.1032
     21 S1          6.4429   10.7338    3.1033 S.o2      1 <0>         2.6979
     22 O6          6.2371   11.9115    3.8713 O.2       1 <0>        -0.9462
     23 O7          7.7291   10.1576    2.9222 O.2       1 <0>        -0.9459
     24 C11         5.8083   11.0651    1.4933 C.ar      1 <0>        -0.7016
     25 C12         6.2818   10.3549    0.4055 C.ar      1 <0>        -0.0038
     26 C13         5.7829   10.6089   -0.8571 C.ar      1 <0>        -0.1669
     27 C14         4.8120   11.5857   -1.0349 C.ar      1 <0>         0.2066
     28 C15         4.3423   12.3009    0.0589 C.ar      1 <0>        -0.1442
     29 C16         4.8418   12.0388    1.3196 C.ar      1 <0>         0.0073
     30 N5          4.3077   11.8485   -2.3134 N.am      1 <0>        -0.6793
     31 C17         3.9378   13.1007   -2.6476 C.2       1 <0>         0.5113
     32 O8          4.1303   14.0163   -1.8758 O.2       1 <0>        -0.5157
     33 C18         3.2849   13.3631   -3.9802 C.3       1 <0>        -0.1720
     34 C19         1.4015    0.4975   -0.7015 C.3       1 <0>        -0.1522
     35 H2         -0.0357   -1.6634   -0.3743 H         1 <0>         0.0661
     36 H3         -0.1170   -1.6706    1.4037 H         1 <0>         0.0586
     37 H4         -1.6075   -1.8305    0.4441 H         1 <0>         0.0697
     38 H5         -1.3773    0.4644    1.3548 H         1 <0>         0.0760
     39 H6         -1.2960    0.4715   -0.4233 H         1 <0>         0.0943
     40 H7          1.5767   -0.5153    1.9907 H         1 <0>         0.4453
     41 H8          0.3810    4.3082    2.8537 H         1 <0>         0.4309
     42 H9          1.7555    6.5969    2.4858 H         1 <0>         0.1153
     43 H10         2.1915    5.8964    4.0630 H         1 <0>         0.1169
     44 H11         6.1786    7.2571    4.9749 H         1 <0>         0.0722
     45 H12         6.4274    6.3170    3.4840 H         1 <0>         0.0885
     46 H13         7.4547    7.7294    3.8274 H         1 <0>         0.0938
     47 H14         4.9494    9.7587    4.5554 H         1 <0>         0.4292
     48 H15         7.0399    9.5982    0.5438 H         1 <0>         0.1476
     49 H16         6.1502   10.0510   -1.7058 H         1 <0>         0.1391
     50 H17         3.5871   13.0610   -0.0760 H         1 <0>         0.1451
     51 H18         4.4770   12.5946    2.1707 H         1 <0>         0.1460
     52 H19         4.2243   11.1295   -2.9591 H         1 <0>         0.4169
     53 H20         2.2038   13.2659   -3.8806 H         1 <0>         0.1018
     54 H21         3.5298   14.3720   -4.3124 H         1 <0>         0.1010
     55 H22         3.6488   12.6414   -4.7115 H         1 <0>         0.0851
     56 H23         1.5619   -0.5789   -0.7630 H         1 <0>         0.0888
     57 H24         2.3643    1.0062   -0.6540 H         1 <0>         0.0718
     58 H25         0.8556    0.8344   -1.5827 H         1 <0>         0.0883
@<TRIPOS>BOND
     1    1    2 1
     2    1   35 1
     3    1   36 1
     4    1   37 1
     5    2    3 1
     6    2   38 1
     7    2   39 1
     8    3    9 1
     9    3    4 1
    10    3   34 1
    11    4    5 2
    12    4    6 am
    13    6    7 am
    14    6   10 1
    15    7    8 2
    16    7    9 am
    17    9   40 1
    18   10   11 am
    19   10   41 1
    20   11   12 2
    21   11   13 1
    22   13   14 1
    23   13   42 1
    24   13   43 1
    25   14   15 1
    26   15   16 2
    27   15   17 1
    28   17   18 1
    29   17   19 1
    30   17   20 1
    31   19   44 1
    32   19   45 1
    33   19   46 1
    34   20   21 1
    35   20   47 1
    36   21   22 2
    37   21   23 2
    38   21   24 1
    39   24   29 ar
    40   24   25 ar
    41   25   26 ar
    42   25   48 1
    43   26   27 ar
    44   26   49 1
    45   27   28 ar
    46   27   30 1
    47   28   29 ar
    48   28   50 1
    49   29   51 1
    50   30   31 am
    51   30   52 1
    52   31   32 2
    53   31   33 1
    54   33   53 1
    55   33   54 1
    56   33   55 1
    57   34   56 1
    58   34   57 1
    59   34   58 1
@<TRIPOS>MOLECULE
ZINC21326539
   55    57     0     0     0
SMALL
USER_CHARGES
2-[[4-amino-5-[(N'E)-N'-[(3-ethoxy-4-hydroxy-phenyl)methylene]hydrazino]-1,2,4-triazol-3-yl]sulfanyl]-N-(3-methoxyphenyl)acetamide
@<TRIPOS>ATOM
      1 C1          5.5537   21.6841    1.5599 C.3       1 <0>        -0.1547
      2 C2          4.9831   20.2708    1.4253 C.3       1 <0>         0.0507
      3 O1          3.5562   20.3353    1.3827 O.3       1 <0>        -0.3041
      4 C3          2.8882   19.1567    1.2640 C.ar      1 <0>         0.0875
      5 C4          3.5908   17.9684    1.1905 C.ar      1 <0>        -0.1434
      6 C5          2.9011   16.7593    1.0690 C.ar      1 <0>        -0.0580
      7 C6          1.5048   16.7578    1.0167 C.ar      1 <0>        -0.0699
      8 C7          0.8108   17.9470    1.0959 C.ar      1 <0>        -0.1847
      9 C8          1.4960   19.1470    1.2169 C.ar      1 <0>         0.1483
     10 O2          0.8070   20.3169    1.2894 O.3       1 <0>        -0.4978
     11 C9          3.6449   15.4890    0.9903 C.2       1 <0>         0.1010
     12 N1          3.0022   14.3662    0.8775 N.2       1 <0>        -0.1944
     13 N2          3.7090   13.1589    0.8026 N.pl3     1 <0>        -0.5620
     14 C10         3.0225   11.9594    0.6821 C.2       1 <0>         0.4885
     15 N3          1.7201   11.8191    0.6269 N.2       1 <0>        -0.3138
     16 N4          1.4370   10.4528    0.5001 N.2       1 <0>        -0.3045
     17 C11         2.5758    9.8021    0.4910 C.2       1 <0>         0.1730
     18 N5          3.5852   10.7160    0.5995 N.pl3     1 <0>        -0.2625
     19 N6          4.9222   10.4368    0.6220 N.3       1 <0>        -0.7779
     20 S1          2.7698    8.0561    0.3550 S.3       1 <0>         0.0743
     21 C12         1.0697    7.4327    0.2470 C.3       1 <0>        -0.1454
     22 C13         1.0922    5.9308    0.1252 C.2       1 <0>         0.5402
     23 O3          2.1509    5.3392    0.1125 O.2       1 <0>        -0.5043
     24 N7         -0.0642    5.2451    0.0304 N.am      1 <0>        -0.6779
     25 C14        -0.0497    3.8459    0.0285 C.ar      1 <0>         0.1901
     26 C15         0.9059    3.1593    0.7671 C.ar      1 <0>        -0.1591
     27 C16         0.9201    1.7781    0.7652 C.ar      1 <0>        -0.0594
     28 C17        -0.0157    1.0757    0.0296 C.ar      1 <0>        -0.2223
     29 C18        -0.9692    1.7563   -0.7141 C.ar      1 <0>         0.1467
     30 C19        -0.9900    3.1425   -0.7106 C.ar      1 <0>        -0.1792
     31 O4         -1.8851    1.0644   -1.4417 O.3       1 <0>        -0.3165
     32 C20        -1.8076   -0.3617   -1.3948 C.3       1 <0>         0.0237
     33 H1          6.6521   21.6345    1.5927 H         1 <0>         0.0792
     34 H2          5.1796   22.1438    2.4866 H         1 <0>         0.0675
     35 H3          5.2396   22.2900    0.6972 H         1 <0>         0.0675
     36 H4          5.3572   19.8111    0.4986 H         1 <0>         0.0618
     37 H5          5.2972   19.6649    2.2880 H         1 <0>         0.0618
     38 H6          4.6702   17.9746    1.2272 H         1 <0>         0.1383
     39 H7          0.9690   15.8253    0.9184 H         1 <0>         0.1405
     40 H8         -0.2685   17.9443    1.0591 H         1 <0>         0.1393
     41 H9         -0.2924   20.3109    1.2523 H         1 <0>         0.4346
     42 H10         4.7443   15.4921    1.0271 H         1 <0>         0.1227
     43 H11         4.8084   13.1620    0.8393 H         1 <0>         0.4087
     44 H12         5.2678    9.3951    0.5485 H         1 <0>         0.4495
     45 H13         5.6532   11.2537    0.7136 H         1 <0>         0.4367
     46 H14         0.5160    7.7188    1.1534 H         1 <0>         0.1341
     47 H15         0.5761    7.8648   -0.6359 H         1 <0>         0.1331
     48 H16        -1.0194    5.7854   -0.0455 H         1 <0>         0.4426
     49 H17         1.6382    3.7057    1.3427 H         1 <0>         0.1359
     50 H18         1.6642    1.2460    1.3394 H         1 <0>         0.1298
     51 H19        -0.0021   -0.0042    0.0301 H         1 <0>         0.1297
     52 H20        -1.7340    3.6738   -1.2856 H         1 <0>         0.1353
     53 H21        -2.6008   -0.7929   -2.0233 H         1 <0>         0.1032
     54 H22        -1.9366   -0.7020   -0.3567 H         1 <0>         0.0580
     55 H23        -0.8258   -0.6880   -1.7683 H         1 <0>         0.0579
@<TRIPOS>BOND
     1    1    2 1
     2    1   33 1
     3    1   34 1
     4    1   35 1
     5    2    3 1
     6    2   36 1
     7    2   37 1
     8    3    4 1
     9    4    9 ar
    10    4    5 ar
    11    5    6 ar
    12    5   38 1
    13    6    7 ar
    14    6   11 1
    15    7    8 ar
    16    7   39 1
    17    8    9 ar
    18    8   40 1
    19    9   10 1
    20   10   41 1
    21   11   12 2
    22   11   42 1
    23   12   13 1
    24   13   14 1
    25   13   43 1
    26   14   18 1
    27   14   15 2
    28   15   16 1
    29   16   17 2
    30   17   18 1
    31   17   20 1
    32   18   19 1
    33   19   44 1
    34   19   45 1
    35   20   21 1
    36   21   22 1
    37   21   46 1
    38   21   47 1
    39   22   23 2
    40   22   24 am
    41   24   25 1
    42   24   48 1
    43   25   30 ar
    44   25   26 ar
    45   26   27 ar
    46   26   49 1
    47   27   28 ar
    48   27   50 1
    49   28   29 ar
    50   28   51 1
    51   29   30 ar
    52   29   31 1
    53   30   52 1
    54   31   32 1
    55   32   53 1
    56   32   54 1
    57   32   55 1
@<TRIPOS>MOLECULE
ZINC57351039
   57    58     0     0     0
SMALL
USER_CHARGES

@<TRIPOS>ATOM
      1 C1         -0.0340    1.4803    0.0104 C.3       1 <0>        -0.1455
      2 C2          0.1939   -0.0094    0.0109 C.ar      1 <0>         0.0062
      3 C3          0.2621   -0.6974   -1.1869 C.ar      1 <0>        -0.1178
      4 C4          0.4708   -2.0624   -1.1899 C.ar      1 <0>        -0.0572
      5 C5          0.6128   -2.7444    0.0117 C.ar      1 <0>         0.1310
      6 C6          0.5444   -2.0507    1.2125 C.ar      1 <0>        -0.0471
      7 C7          0.3401   -0.6845    1.2086 C.ar      1 <0>        -0.6632
      8 S1          0.2597    0.1978    2.7317 S.o2      1 <0>         2.6924
      9 O1          0.3937   -0.7663    3.7670 O.2       1 <0>        -0.9426
     10 O2          1.1388    1.3071    2.6053 O.2       1 <0>        -0.9432
     11 N1         -1.2704    0.8183    2.8578 N.pl3     1 <0>        -1.0553
     12 C8         -2.3636   -0.0415    3.0128 C.ar      1 <0>         0.1214
     13 C9         -2.4689   -1.1801    2.2251 C.ar      1 <0>        -0.1233
     14 C10        -3.5479   -2.0284    2.3790 C.ar      1 <0>        -0.1201
     15 C11        -4.5261   -1.7432    3.3201 C.ar      1 <0>         0.1185
     16 C12        -4.4219   -0.6058    4.1070 C.ar      1 <0>        -0.1837
     17 C13        -3.3406    0.2405    3.9583 C.ar      1 <0>        -0.0872
     18 O3         -5.5883   -2.5791    3.4710 O.3       1 <0>        -0.3162
     19 C14        -6.5579   -2.2241    4.4588 C.3       1 <0>         0.0253
     20 N2          0.8240   -4.1276    0.0121 N.am      1 <0>        -0.6757
     21 C15         1.5263   -4.7024   -0.9843 C.2       1 <0>         0.4999
     22 O4          2.0505   -4.0125   -1.8330 O.2       1 <0>        -0.4759
     23 C16         1.6600   -6.2022   -1.0441 C.3       1 <0>         0.1650
     24 H1          0.7106   -6.6629   -0.7710 H         1 <0>         0.1175
     25 C17         2.7468   -6.6566   -0.0676 C.3       1 <0>        -0.1230
     26 C18         2.7972   -8.1854   -0.0360 C.3       1 <0>        -0.0795
     27 S2          4.0856   -8.7241    1.1217 S.3       1 <0>        -0.2568
     28 C19         4.0169  -10.5351    1.0432 C.3       1 <0>        -0.1216
     29 N3          2.0256   -6.6062   -2.4040 N.am      1 <0>        -0.7363
     30 C20         3.1691   -6.1550   -2.9566 C.2       1 <0>         0.7099
     31 O5          3.8973   -5.4128   -2.3264 O.2       1 <0>        -0.5605
     32 N4          3.5054   -6.5266   -4.2077 N.am      1 <0>        -0.8678
     33 H2          0.9249    1.9946    0.0748 H         1 <0>         0.1000
     34 H3         -0.5407    1.7700   -0.9101 H         1 <0>         0.0860
     35 H4         -0.6511    1.7537    0.8664 H         1 <0>         0.0650
     36 H5          0.1516   -0.1665   -2.1210 H         1 <0>         0.1381
     37 H6          0.5233   -2.5992   -2.1256 H         1 <0>         0.1426
     38 H7          0.6544   -2.5781    2.1486 H         1 <0>         0.1497
     39 H8         -1.4089    1.7778    2.8244 H         1 <0>         0.4266
     40 H9         -1.7075   -1.4022    1.4920 H         1 <0>         0.1387
     41 H10        -3.6302   -2.9139    1.7662 H         1 <0>         0.1372
     42 H11        -5.1842   -0.3843    4.8393 H         1 <0>         0.1358
     43 H12        -3.2572    1.1236    4.5745 H         1 <0>         0.1345
     44 H13        -6.0798   -2.1784    5.4373 H         1 <0>         0.0575
     45 H14        -6.9836   -1.2503    4.2166 H         1 <0>         0.0567
     46 H15        -7.3499   -2.9727    4.4760 H         1 <0>         0.1018
     47 H16         0.4650   -4.6728    0.7296 H         1 <0>         0.4132
     48 H17         3.7121   -6.2679   -0.3918 H         1 <0>         0.1098
     49 H18         2.5197   -6.2799    0.9297 H         1 <0>         0.0867
     50 H19         1.8318   -8.5742    0.2882 H         1 <0>         0.0817
     51 H20         3.0242   -8.5622   -1.0333 H         1 <0>         0.0820
     52 H21         3.0259  -10.8745    1.3447 H         1 <0>         0.0766
     53 H22         4.2183  -10.8625    0.0232 H         1 <0>         0.0756
     54 H23         4.7651  -10.9566    1.7145 H         1 <0>         0.1035
     55 H24         1.4446   -7.1983   -2.9068 H         1 <0>         0.4023
     56 H25         2.9244   -7.1187   -4.7104 H         1 <0>         0.3943
     57 H26         4.3284   -6.2019   -4.6053 H         1 <0>         0.4164
@<TRIPOS>BOND
     1    1    2 1
     2    1   33 1
     3    1   34 1
     4    1   35 1
     5    2    7 ar
     6    2    3 ar
     7    3    4 ar
     8    3   36 1
     9    4    5 ar
    10    4   37 1
    11    5    6 ar
    12    5   20 1
    13    6    7 ar
    14    6   38 1
    15    7    8 1
    16    8    9 2
    17    8   10 2
    18    8   11 1
    19   11   12 1
    20   11   39 1
    21   12   17 ar
    22   12   13 ar
    23   13   14 ar
    24   13   40 1
    25   14   15 ar
    26   14   41 1
    27   15   16 ar
    28   15   18 1
    29   16   17 ar
    30   16   42 1
    31   17   43 1
    32   18   19 1
    33   19   44 1
    34   19   45 1
    35   19   46 1
    36   20   21 am
    37   20   47 1
    38   21   22 2
    39   21   23 1
    40   23   24 1
    41   23   25 1
    42   23   29 1
    43   25   26 1
    44   25   48 1
    45   25   49 1
    46   26   27 1
    47   26   50 1
    48   26   51 1
    49   27   28 1
    50   28   52 1
    51   28   53 1
    52   28   54 1
    53   29   30 am
    54   29   55 1
    55   30   31 2
    56   30   32 am
    57   32   56 1
    58   32   57 1
@<TRIPOS>MOLECULE
ZINC59829833
   53    55     0     0     0
SMALL
USER_CHARGES

@<TRIPOS>ATOM
      1 C1         -0.0752    1.5028    0.0114 C.3       1 <0>        -0.0766
      2 C2         -0.0562   -0.0040    0.0033 C.2       1 <0>         0.1211
      3 C3         -0.0425   -0.8260   -1.1439 C.2       1 <0>        -0.2101
      4 C4         -0.0264   -2.1338   -0.7103 C.2       1 <0>         0.1238
      5 N1         -0.0301   -2.1114    0.6380 N.pl3     1 <0>        -0.3564
      6 N2         -0.0438   -0.7759    1.0565 N.2       1 <0>        -0.2975
      7 C5         -0.0169   -3.2847    1.5152 C.3       1 <0>         0.1590
      8 C6          1.4084   -3.6684    1.8195 C.2       1 <0>        -0.1885
      9 C7          1.8073   -3.7730    3.0629 C.2       1 <0>        -0.1509
     10 C8         -0.0084   -3.3628   -1.5823 C.3       1 <0>        -0.0984
     11 C9         -0.0449   -0.3694   -2.5477 C.2       1 <0>         0.1544
     12 N3         -0.0605    0.8999   -2.8171 N.2       1 <0>        -0.2191
     13 N4         -0.0628    1.3332   -4.1494 N.pl3     1 <0>        -0.5480
     14 C10        -0.0794    2.6900   -4.4374 C.2       1 <0>         0.5344
     15 N5         -0.0882    3.6641   -3.5599 N.2       1 <0>        -0.3195
     16 N6         -0.1043    4.8774   -4.2601 N.2       1 <0>        -0.2935
     17 C11        -0.1049    4.6051   -5.5431 C.2       1 <0>         0.1502
     18 N7         -0.0835    3.2466   -5.6863 N.pl3     1 <0>        -0.3480
     19 N8         -0.0720    2.5641   -6.8696 N.3       1 <0>        -0.5942
     20 S1         -0.1229    5.7844   -6.8521 S.3       1 <0>         0.0707
     21 C12        -0.1388    7.3857   -6.0000 C.3       1 <0>        -0.1411
     22 C13        -0.1551    8.4965   -7.0183 C.2       1 <0>         0.5374
     23 O1         -0.1559    8.2337   -8.2024 O.2       1 <0>        -0.4995
     24 N9         -0.1689    9.7819   -6.6133 N.am      1 <0>        -0.6637
     25 C14        -0.0863   10.8132   -7.5554 C.ar      1 <0>         0.1532
     26 C15         0.6037   11.9797   -7.2514 C.ar      1 <0>        -0.1363
     27 C16         0.6842   12.9959   -8.1830 C.ar      1 <0>        -0.0871
     28 C17         0.0784   12.8538   -9.4179 C.ar      1 <0>        -0.1219
     29 C18        -0.6099   11.6931   -9.7244 C.ar      1 <0>        -0.0172
     30 C19        -0.6889   10.6701   -8.7978 C.ar      1 <0>        -0.1133
     31 Cl1        -1.3694   11.5190  -11.2757 Cl        1 <0>        -0.0614
     32 H1          0.9477    1.8791    0.0113 H         1 <0>         0.0780
     33 H2         -0.5955    1.8644   -0.8755 H         1 <0>         0.0997
     34 H3         -0.5917    1.8549    0.9044 H         1 <0>         0.0680
     35 H4         -0.5362   -3.0497    2.4442 H         1 <0>         0.1026
     36 H5         -0.5186   -4.1153    1.0186 H         1 <0>         0.1036
     37 H6          2.1009   -3.8570    1.0125 H         1 <0>         0.1148
     38 H7          2.8287   -4.0479    3.2810 H         1 <0>         0.1062
     39 H8          1.1147   -3.5843    3.8699 H         1 <0>         0.1030
     40 H9          1.0235   -3.6460   -1.7899 H         1 <0>         0.0873
     41 H10        -0.5131   -4.1806   -1.0679 H         1 <0>         0.0770
     42 H11        -0.5226   -3.1508   -2.5197 H         1 <0>         0.0884
     43 H12        -0.0338   -1.0918   -3.3505 H         1 <0>         0.1175
     44 H13        -0.0528    0.6844   -4.8705 H         1 <0>         0.4002
     45 H14        -1.0108    2.3714   -7.1850 H         1 <0>         0.3626
     46 H15         0.4495    3.0669   -7.5720 H         1 <0>         0.3789
     47 H16        -1.0277    7.4547   -5.3728 H         1 <0>         0.1342
     48 H17         0.7522    7.4755   -5.3786 H         1 <0>         0.1347
     49 H18        -0.2360    9.9920   -5.6687 H         1 <0>         0.4192
     50 H19         1.0766   12.0921   -6.2869 H         1 <0>         0.1350
     51 H20         1.2206   13.9030   -7.9466 H         1 <0>         0.1393
     52 H21         0.1422   13.6503  -10.1444 H         1 <0>         0.1366
     53 H22        -1.2223    9.7624   -9.0387 H         1 <0>         0.1510
@<TRIPOS>BOND
     1    1    2 1
     2    1   32 1
     3    1   33 1
     4    1   34 1
     5    2    6 2
     6    2    3 1
     7    3    4 2
     8    3   11 1
     9    4    5 1
    10    4   10 1
    11    5    6 1
    12    5    7 1
    13    7    8 1
    14    7   35 1
    15    7   36 1
    16    8    9 2
    17    8   37 1
    18    9   38 1
    19    9   39 1
    20   10   40 1
    21   10   41 1
    22   10   42 1
    23   11   12 2
    24   11   43 1
    25   12   13 1
    26   13   14 1
    27   13   44 1
    28   14   18 1
    29   14   15 2
    30   15   16 1
    31   16   17 2
    32   17   18 1
    33   17   20 1
    34   18   19 1
    35   19   45 1
    36   19   46 1
    37   20   21 1
    38   21   22 1
    39   21   47 1
    40   21   48 1
    41   22   23 2
    42   22   24 am
    43   24   25 1
    44   24   49 1
    45   25   30 ar
    46   25   26 ar
    47   26   27 ar
    48   26   50 1
    49   27   28 ar
    50   27   51 1
    51   28   29 ar
    52   28   52 1
    53   29   30 ar
    54   29   31 1
    55   30   53 1
@<TRIPOS>MOLECULE
ZINC63493740
   62    65     0     0     0
SMALL
NO_CHARGES

@<TRIPOS>ATOM
      1 C1         -0.0184    1.5028    0.0103 C.3       1 <0>        -0.1007
      2 C2          0.0021   -0.0041    0.0020 C.ar      1 <0>         0.1988
      3 C3          0.0059   -0.6991   -1.1973 C.ar      1 <0>        -0.2857
      4 C4          0.0249   -2.0846   -1.1597 C.ar      1 <0>         0.1973
      5 N1          0.0386   -2.6979    0.0121 N.ar      1 <0>        -0.5817
      6 C5          0.0345   -2.0038    1.1397 C.ar      1 <0>         0.5585
      7 N2          0.0220   -0.6796    1.1391 N.ar      1 <0>        -0.4632
      8 N3          0.0493   -2.6807    2.3522 N.pl3     1 <0>        -0.6395
      9 C6          0.0452   -1.9806    3.5254 C.2       1 <0>         0.5959
     10 N4          0.0272   -0.6546    3.5064 N.2       1 <0>        -0.6604
     11 C7          0.0233    0.0278    4.6501 C.2       1 <0>         0.4912
     12 O1          0.0362   -0.5647    5.7113 O.2       1 <0>        -0.5510
     13 C8          0.0027    1.5345    4.6285 C.3       1 <0>        -0.0996
     14 S1          0.0021    2.1637    6.3299 S.3       1 <0>        -0.0510
     15 C9         -0.0233    3.9665    6.1311 C.3       1 <0>         0.0508
     16 H1         -0.0131    4.4697    7.0979 H         1 <0>         0.1701
     17 N5          1.0889    4.4300    5.2701 N.2       1 <0>        -0.1079
     18 N6          0.8839    5.2006    4.3529 N.2       1 <0>        -0.1408
     19 C10        -0.4834    5.6957    4.0729 C.3       1 <0>         0.2244
     20 H2         -0.7313    5.6010    3.0157 H         1 <0>         0.1243
     21 S2         -1.4607    4.5106    5.1037 S.3       1 <0>        -0.3114
     22 N7         -0.6574    7.0785    4.5371 N.3       1 <0>        -0.8222
     23 N8          0.0598   -2.6446    4.7147 N.2       1 <0>        -0.6617
     24 C11         0.0797   -4.1093    4.7358 C.3       1 <0>         0.0745
     25 C12         0.0931   -4.5984    6.1854 C.3       1 <0>        -0.0723
     26 C13         0.1136   -6.1051    6.2070 C.2       1 <0>         0.1008
     27 C14         1.2010   -6.9018    6.3133 C.ar      1 <0>        -0.1622
     28 C15         2.6350   -6.6177    6.4351 C.ar      1 <0>        -0.0585
     29 C16         3.5134   -7.6451    6.5253 C.ar      1 <0>         0.0783
     30 C17         3.1009   -8.9889    6.5066 C.ar      1 <0>        -0.0264
     31 C18         1.8045   -9.3501    6.3974 C.ar      1 <0>        -0.1650
     32 C19         0.7678   -8.3182    6.2937 C.ar      1 <0>         0.3075
     33 N9         -0.5347   -8.3935    6.1800 N.pl3     1 <0>        -0.5864
     34 C20        -1.0784   -7.0319    6.1209 C.3       1 <0>         0.0571
     35 O2          4.8391   -7.3670    6.6373 O.3       1 <0>        -0.3048
     36 C21         5.7299   -8.4805    6.7297 C.3       1 <0>         0.0184
     37 C22         0.0292   -2.8823   -2.4383 C.3       1 <0>        -0.1009
     38 H3          1.0042    1.8801    0.0026 H         1 <0>         0.0803
     39 H4         -0.5455    1.8639   -0.8728 H         1 <0>         0.0722
     40 H5         -0.5286    1.8543    0.9071 H         1 <0>         0.0826
     41 H6         -0.0060   -0.1727   -2.1402 H         1 <0>         0.1353
     42 H7          0.8854    1.9024    4.1054 H         1 <0>         0.0947
     43 H8         -0.8944    1.8783    4.1137 H         1 <0>         0.1025
     44 H9         -0.0227    7.7022    4.0614 H         1 <0>         0.3572
     45 H10        -1.6135    7.3803    4.4241 H         1 <0>         0.3659
     46 H11        -0.8075   -4.4920    4.2313 H         1 <0>         0.0144
     47 H12         0.9723   -4.4679    4.2231 H         1 <0>         0.0177
     48 H13         0.9803   -4.2157    6.6898 H         1 <0>         0.1095
     49 H14        -0.7995   -4.2398    6.6981 H         1 <0>         0.1100
     50 H15         2.9879   -5.5971    6.4524 H         1 <0>         0.1654
     51 H16         3.8505   -9.7628    6.5823 H         1 <0>         0.1613
     52 H17         1.5321  -10.3951    6.3864 H         1 <0>         0.1630
     53 H18        -1.7517   -6.8570    6.9600 H         1 <0>         0.1750
     54 H19        -1.6046   -6.8806    5.1783 H         1 <0>         0.1744
     55 H20         5.4798   -9.0739    7.6092 H         1 <0>         0.0602
     56 H21         5.6345   -9.0973    5.8361 H         1 <0>         0.0603
     57 H22         6.7550   -8.1197    6.8144 H         1 <0>         0.1123
     58 H23         1.0579   -3.0607   -2.7517 H         1 <0>         0.0796
     59 H24        -0.4709   -3.8365   -2.2729 H         1 <0>         0.0752
     60 H25        -0.4961   -2.3266   -3.2150 H         1 <0>         0.0774
     61 H26        -1.0535   -9.2124    6.1448 H         1 <0>         0.4512
     62 H27         0.0625   -3.6505    2.3661 H         1 <0>         0.4074
@<TRIPOS>BOND
     1    1    2 1
     2    1   38 1
     3    1   39 1
     4    1   40 1
     5    2    7 ar
     6    2    3 ar
     7    3    4 ar
     8    3   41 1
     9    4    5 ar
    10    4   37 1
    11    5    6 ar
    12    6    7 ar
    13    6    8 1
    14    8    9 1
    15    8   62 1
    16    9   23 1
    17    9   10 2
    18   10   11 1
    19   11   12 2
    20   11   13 1
    21   13   14 1
    22   13   42 1
    23   13   43 1
    24   14   15 1
    25   15   16 1
    26   15   21 1
    27   15   17 1
    28   17   18 2
    29   18   19 1
    30   19   20 1
    31   19   21 1
    32   19   22 1
    33   22   44 1
    34   22   45 1
    35   23   24 1
    36   24   25 1
    37   24   46 1
    38   24   47 1
    39   25   26 1
    40   25   48 1
    41   25   49 1
    42   26   34 1
    43   26   27 2
    44   27   32 ar
    45   27   28 ar
    46   28   29 ar
    47   28   50 1
    48   29   30 ar
    49   29   35 1
    50   30   31 ar
    51   30   51 1
    52   31   32 ar
    53   31   52 1
    54   32   33 2
    55   33   34 1
    56   33   61 1
    57   34   53 1
    58   34   54 1
    59   35   36 1
    60   36   55 1
    61   36   56 1
    62   36   57 1
    63   37   58 1
    64   37   59 1
    65   37   60 1
@<TRIPOS>MOLECULE
ZINC09975238
   58    61     0     0     0
SMALL
USER_CHARGES
2-[6-amino-8-[2-(4-methoxyphenoxy)-1-methyl-ethylidene]aminoamino-purin-9-yl]-5-(hydroxymethyl)tetrahydrofuran-3,4-diol
@<TRIPOS>ATOM
      1 C1          2.0547   -1.6351    3.4468 C.3       1 <0>        -0.1525
      2 C2          1.2418   -0.9359    4.5058 C.2       1 <0>         0.0662
      3 N1          0.4564    0.0216    4.1816 N.2       1 <0>        -0.1632
      4 N2          0.3526    0.4195    2.8424 N.pl3     1 <0>        -0.5497
      5 C3         -0.4946    1.4524    2.4927 C.2       1 <0>         0.5573
      6 N3         -1.2453    2.1273    3.3277 N.2       1 <0>        -0.4604
      7 C4         -1.9475    3.0652    2.6449 C.ar      1 <0>        -0.0352
      8 C5         -2.8829    4.0500    3.0035 C.ar      1 <0>         0.4341
      9 N4         -3.3771    4.8320    2.0492 N.ar      1 <0>        -0.5666
     10 C6         -3.0119    4.6860    0.7886 C.ar      1 <0>         0.3341
     11 N5         -2.1421    3.7745    0.4063 N.ar      1 <0>        -0.5260
     12 C7         -1.5893    2.9523    1.2917 C.ar      1 <0>         0.3031
     13 N6         -0.6770    1.9252    1.2216 N.pl3     1 <0>        -0.4844
     14 C8         -0.0174    1.4322    0.0099 C.3       1 <0>         0.3103
     15 H1         -0.5253    1.8086   -0.8781 H         1 <0>         0.1385
     16 C9          1.4726    1.8571   -0.0020 C.3       1 <0>         0.0748
     17 H2          1.9013    1.8145    0.9992 H         1 <0>         0.0898
     18 C10         2.0837    0.7633   -0.9196 C.3       1 <0>         0.0456
     19 H3          3.1320    0.5925   -0.6744 H         1 <0>         0.0975
     20 C11         1.2290   -0.4736   -0.5690 C.3       1 <0>         0.0471
     21 H4          1.7573   -1.0976    0.1518 H         1 <0>         0.1026
     22 O1          0.0021   -0.0041    0.0020 O.3       1 <0>        -0.3541
     23 C12         0.9368   -1.2789   -1.8367 C.3       1 <0>         0.0642
     24 O2          0.2376   -2.4759   -1.4900 O.3       1 <0>        -0.5617
     25 O3          1.9360    1.1093   -2.2982 O.3       1 <0>        -0.5326
     26 O4          1.6329    3.1571   -0.5733 O.3       1 <0>        -0.5205
     27 N7         -3.2703    4.2121    4.3238 N.pl3     1 <0>        -0.7419
     28 C13         1.3535   -1.3640    5.9464 C.3       1 <0>         0.1276
     29 O5          0.4920   -0.5566    6.7514 O.3       1 <0>        -0.2911
     30 C14         0.4733   -0.8149    8.0863 C.ar      1 <0>         0.0956
     31 C15         1.2638   -1.8282    8.6078 C.ar      1 <0>        -0.1729
     32 C16         1.2484   -2.0874    9.9645 C.ar      1 <0>        -0.1693
     33 C17         0.4349   -1.3409   10.8039 C.ar      1 <0>         0.0901
     34 C18        -0.3599   -0.3313   10.2817 C.ar      1 <0>        -0.1101
     35 C19        -0.3406   -0.0687    8.9257 C.ar      1 <0>        -0.1048
     36 O6          0.4162   -1.5991   12.1389 O.3       1 <0>        -0.3181
     37 C20         1.2599   -2.6529   12.6077 C.3       1 <0>         0.0276
     38 H5          3.0138   -1.1300    3.3326 H         1 <0>         0.0876
     39 H6          2.2224   -2.6708    3.7423 H         1 <0>         0.0933
     40 H7          1.5158   -1.6102    2.4997 H         1 <0>         0.0689
     41 H8          0.8758   -0.0305    2.1607 H         1 <0>         0.3950
     42 H9         -3.4429    5.3383    0.0435 H         1 <0>         0.2063
     43 H10         0.3236   -0.6827   -2.5125 H         1 <0>         0.0674
     44 H11         1.8751   -1.5356   -2.3284 H         1 <0>         0.0627
     45 H12         0.0190   -3.0369   -2.2467 H         1 <0>         0.3869
     46 H13         2.2248    0.4186   -2.9102 H         1 <0>         0.3846
     47 H14         2.5494    3.4641   -0.6014 H         1 <0>         0.3906
     48 H15        -3.6830    3.3642    4.6566 H         1 <0>         0.3686
     49 H16        -3.9171    4.8957    4.5590 H         1 <0>         0.3718
     50 H17         1.0615   -2.4102    6.0383 H         1 <0>         0.0880
     51 H18         2.3833   -1.2433    6.2826 H         1 <0>         0.0878
     52 H19         1.8942   -2.4122    7.9536 H         1 <0>         0.1300
     53 H20         1.8670   -2.8737   10.3711 H         1 <0>         0.1302
     54 H21        -0.9936    0.2498   10.9353 H         1 <0>         0.1388
     55 H22        -0.9595    0.7175    8.5191 H         1 <0>         0.1420
     56 H23         2.2978   -2.4209   12.3687 H         1 <0>         0.0542
     57 H24         1.1494   -2.7537   13.6874 H         1 <0>         0.1000
     58 H25         0.9761   -3.5878   12.1245 H         1 <0>         0.0542
@<TRIPOS>BOND
     1    1    2 1
     2    1   38 1
     3    1   39 1
     4    1   40 1
     5    2    3 2
     6    2   28 1
     7    3    4 1
     8    4    5 1
     9    4   41 1
    10    5   13 1
    11    5    6 2
    12    6    7 1
    13    7   12 ar
    14    7    8 ar
    15    8    9 ar
    16    8   27 1
    17    9   10 ar
    18   10   11 ar
    19   10   42 1
    20   11   12 ar
    21   12   13 1
    22   13   14 1
    23   14   15 1
    24   14   22 1
    25   14   16 1
    26   16   17 1
    27   16   18 1
    28   16   26 1
    29   18   19 1
    30   18   20 1
    31   18   25 1
    32   20   21 1
    33   20   22 1
    34   20   23 1
    35   23   24 1
    36   23   43 1
    37   23   44 1
    38   24   45 1
    39   25   46 1
    40   26   47 1
    41   27   48 1
    42   27   49 1
    43   28   29 1
    44   28   50 1
    45   28   51 1
    46   29   30 1
    47   30   35 ar
    48   30   31 ar
    49   31   32 ar
    50   31   52 1
    51   32   33 ar
    52   32   53 1
    53   33   34 ar
    54   33   36 1
    55   34   35 ar
    56   34   54 1
    57   35   55 1
    58   36   37 1
    59   37   56 1
    60   37   57 1
    61   37   58 1
@<TRIPOS>MOLECULE
ZINC19797197
   54    56     0     0     0
SMALL
USER_CHARGES
2-[[4-ethyl-5-[(3-methyl-6-oxo-2,5-dihydropyridazin-1-yl)methyl]-1,2,4-triazol-3-yl]sulfanyl]-N-(4-sulfamoylphenyl)acetamide
@<TRIPOS>ATOM
      1 C1          2.1743   -2.4005   -1.6629 C.3       1 <0>        -0.1753
      2 C2          1.9160   -2.1000   -0.1851 C.3       1 <0>         0.0968
      3 N1          1.3152   -0.7702   -0.0549 N.pl3     1 <0>        -0.4504
      4 C3          1.9697    0.4288    0.0101 C.2       1 <0>         0.1618
      5 N2          1.0645    1.3593    0.1220 N.2       1 <0>        -0.2472
      6 N3         -0.1087    0.8345    0.1322 N.2       1 <0>        -0.2936
      7 C4         -0.0144   -0.4706    0.0264 C.2       1 <0>         0.1419
      8 S1         -1.3508   -1.6185   -0.0054 S.3       1 <0>         0.0854
      9 C5         -2.7483   -0.4781    0.1446 C.3       1 <0>        -0.1507
     10 C6         -4.0370   -1.2593    0.1395 C.2       1 <0>         0.5391
     11 O1         -4.0130   -2.4681    0.0438 O.2       1 <0>        -0.5017
     12 N4         -5.2162   -0.6146    0.2412 N.am      1 <0>        -0.6826
     13 C7         -6.4151   -1.3288    0.1382 C.ar      1 <0>         0.2091
     14 C8         -7.5218   -0.7471   -0.4662 C.ar      1 <0>        -0.1644
     15 C9         -8.7018   -1.4571   -0.5722 C.ar      1 <0>        -0.0050
     16 C10        -8.7856   -2.7411   -0.0658 C.ar      1 <0>        -0.6795
     17 C11        -7.6872   -3.3209    0.5421 C.ar      1 <0>         0.0076
     18 C12        -6.5025   -2.6186    0.6453 C.ar      1 <0>        -0.1456
     19 S2        -10.2951   -3.6406   -0.1961 S.o2      1 <0>         2.6375
     20 O2        -11.0079   -3.0815   -1.2909 O.2       1 <0>        -0.9869
     21 O3         -9.9535   -5.0185   -0.1334 O.2       1 <0>        -0.9519
     22 N5        -11.1808   -3.3102    1.1636 N.pl3     1 <0>        -1.1627
     23 C13         3.4617    0.6357   -0.0388 C.3       1 <0>         0.2106
     24 N6          4.0204    0.4810    1.3066 N.am      1 <0>        -0.4086
     25 C14         4.0235    1.5230    2.1564 C.2       1 <0>         0.5194
     26 O4          3.5374    2.5771    1.8051 O.2       1 <0>        -0.5143
     27 C15         4.6165    1.4089    3.5312 C.3       1 <0>        -0.0828
     28 C16         4.7901   -0.0271    3.9302 C.2       1 <0>        -0.2815
     29 C17         4.7565   -1.0064    3.0554 C.2       1 <0>         0.1540
     30 N7          4.5458   -0.7539    1.7085 N.pl3     1 <0>        -0.5638
     31 C18         4.9444   -2.4266    3.5232 C.3       1 <0>        -0.1121
     32 H1          2.6254   -3.3990   -1.7606 H         1 <0>         0.0880
     33 H2          2.8602   -1.6462   -2.0760 H         1 <0>         0.0659
     34 H3          1.2230   -2.3723   -2.2145 H         1 <0>         0.0719
     35 H4          1.2301   -2.8543    0.2280 H         1 <0>         0.1029
     36 H5          2.8673   -2.1282    0.3665 H         1 <0>         0.0957
     37 H6         -2.6637    0.0835    1.0866 H         1 <0>         0.1346
     38 H7         -2.7415    0.2236   -0.7025 H         1 <0>         0.1353
     39 H8         -5.2361    0.4729    0.4052 H         1 <0>         0.4467
     40 H9         -7.4585    0.2577   -0.8572 H         1 <0>         0.1394
     41 H10        -9.5612   -1.0073   -1.0471 H         1 <0>         0.1462
     42 H11        -7.7558   -4.3241    0.9363 H         1 <0>         0.1467
     43 H12        -5.6448   -3.0723    1.1196 H         1 <0>         0.1497
     44 H13       -12.1353   -3.8553    1.1209 H         1 <0>         0.4139
     45 H14       -11.3779   -2.2294    1.2191 H         1 <0>         0.4086
     46 H15         3.9132   -0.1086   -0.7112 H         1 <0>         0.1049
     47 H16         3.6796    1.6471   -0.4123 H         1 <0>         0.1354
     48 H17         5.6012    1.8990    3.5476 H         1 <0>         0.1028
     49 H18         3.9517    1.8972    4.2590 H         1 <0>         0.1023
     50 H19         4.9498   -0.2470    4.9961 H         1 <0>         0.1317
     51 H20         4.7895   -1.5189    0.9566 H         1 <0>         0.4398
     52 H21         4.8864   -3.1073    2.6611 H         1 <0>         0.0669
     53 H22         4.1554   -2.6820    4.2458 H         1 <0>         0.0826
     54 H23         5.9286   -2.5270    4.0042 H         1 <0>         0.0850
@<TRIPOS>BOND
     1    1    2 1
     2    1   32 1
     3    1   33 1
     4    1   34 1
     5    2    3 1
     6    2   35 1
     7    2   36 1
     8    3    7 1
     9    3    4 1
    10    4    5 2
    11    4   23 1
    12    5    6 1
    13    6    7 2
    14    7    8 1
    15    8    9 1
    16    9   10 1
    17    9   37 1
    18    9   38 1
    19   10   11 2
    20   10   12 am
    21   12   13 1
    22   12   39 1
    23   13   18 ar
    24   13   14 ar
    25   14   15 ar
    26   14   40 1
    27   15   16 ar
    28   15   41 1
    29   16   17 ar
    30   16   19 1
    31   17   18 ar
    32   17   42 1
    33   18   43 1
    34   19   20 2
    35   19   21 2
    36   19   22 1
    37   22   44 1
    38   22   45 1
    39   23   24 1
    40   23   46 1
    41   23   47 1
    42   24   30 1
    43   24   25 am
    44   25   26 2
    45   25   27 1
    46   27   28 1
    47   27   48 1
    48   27   49 1
    49   28   29 2
    50   28   50 1
    51   29   30 1
    52   29   31 1
    53   30   51 1
    54   31   52 1
    55   31   53 1
    56   31   54 1
@<TRIPOS>MOLECULE
ZINC20914405
   55    56     0     0     0
SMALL
USER_CHARGES
methyl 4-[(E)-[[4-amino-5-[2-(N'-(2,2-dimethylpropanoyl)hydrazino)-2-oxo-ethyl]sulfanyl-1,2,4-triazol-3-yl]hydrazono]methyl]benzoate
@<TRIPOS>ATOM
      1 C1         -5.6724   19.4389    0.1400 C.3       1 <0>        -0.1316
      2 C2         -6.7816   18.3850    0.1396 C.3       1 <0>        -0.0711
      3 C3         -7.6546   18.5639   -1.1040 C.3       1 <0>        -0.1468
      4 C4         -7.6415   18.5492    1.3944 C.3       1 <0>        -0.1468
      5 C5         -6.1671   17.0090    0.1283 C.2       1 <0>         0.5256
      6 O1         -4.9608   16.8836    0.1213 O.2       1 <0>        -0.5402
      7 N1         -6.9581   15.9178    0.1261 N.am      1 <0>        -0.5315
      8 N2         -6.3868   14.6385    0.1156 N.am      1 <0>        -0.5264
      9 C6         -7.1778   13.5473    0.1133 C.2       1 <0>         0.5369
     10 O2         -8.3841   13.6727    0.1204 O.2       1 <0>        -0.5341
     11 C7         -6.5633   12.1713    0.1020 C.3       1 <0>        -0.1391
     12 S1         -7.8755   10.9246    0.1016 S.3       1 <0>         0.0851
     13 C8         -6.9021    9.4559    0.0879 C.2       1 <0>         0.1155
     14 N3         -5.5928    9.3897    0.0811 N.2       1 <0>        -0.2671
     15 N4         -5.2137    8.1619    0.0774 N.2       1 <0>        -0.2802
     16 C9         -6.2570    7.3697    0.0727 C.2       1 <0>         0.4450
     17 N5         -7.3713    8.1691    0.0828 N.pl3     1 <0>        -0.2407
     18 N6         -8.6766    7.7661    0.0865 N.3       1 <0>        -0.7683
     19 N7         -6.2382    5.9825    0.0651 N.pl3     1 <0>        -0.5562
     20 N8         -5.0155    5.2986    0.0551 N.2       1 <0>        -0.1780
     21 C10        -4.9979    3.9986    0.0480 C.2       1 <0>         0.0789
     22 C11        -3.7137    3.2802    0.0375 C.ar      1 <0>        -0.0088
     23 C12        -3.6945    1.8807    0.0298 C.ar      1 <0>        -0.1045
     24 C13        -2.5029    1.2146    0.0205 C.ar      1 <0>        -0.0556
     25 C14        -1.3010    1.9307    0.0187 C.ar      1 <0>        -0.1174
     26 C15        -1.3198    3.3295    0.0322 C.ar      1 <0>        -0.0615
     27 C16        -2.5110    3.9963    0.0357 C.ar      1 <0>        -0.0963
     28 C17        -0.0144    1.2110    0.0087 C.2       1 <0>         0.5068
     29 O3          0.0021   -0.0041    0.0020 O.2       1 <0>        -0.5038
     30 O4          1.1434    1.9006    0.0013 O.3       1 <0>        -0.3538
     31 C18         2.3717    1.1265   -0.0145 C.3       1 <0>         0.0327
     32 H1         -5.0447   19.3103    1.0341 H         1 <0>         0.0650
     33 H2         -6.1209   20.4433    0.1483 H         1 <0>         0.0677
     34 H3         -5.0541   19.3208   -0.7621 H         1 <0>         0.0650
     35 H4         -8.4520   17.8062   -1.1043 H         1 <0>         0.0614
     36 H5         -7.0363   18.4458   -2.0061 H         1 <0>         0.0645
     37 H6         -8.1031   19.5683   -1.0957 H         1 <0>         0.0751
     38 H7         -8.4389   17.7915    1.3941 H         1 <0>         0.0614
     39 H8         -8.0900   19.5536    1.4027 H         1 <0>         0.0751
     40 H9         -7.0138   18.4205    2.2885 H         1 <0>         0.0645
     41 H10        -8.0522   16.0315    0.1325 H         1 <0>         0.4569
     42 H11        -5.2927   14.5248    0.1092 H         1 <0>         0.4631
     43 H12        -5.9451   12.0533   -0.8001 H         1 <0>         0.1349
     44 H13        -5.9356   12.0427    0.9961 H         1 <0>         0.1350
     45 H14        -8.9211    6.6936    0.0816 H         1 <0>         0.4404
     46 H15        -9.4831    8.5141    0.0944 H         1 <0>         0.4524
     47 H16        -7.1833    5.4196    0.0669 H         1 <0>         0.4114
     48 H17        -5.9430    3.4357    0.0498 H         1 <0>         0.1293
     49 H18        -4.6223    1.3278    0.0315 H         1 <0>         0.1394
     50 H19        -2.4880    0.1347    0.0142 H         1 <0>         0.1428
     51 H20        -0.3917    3.8819    0.0352 H         1 <0>         0.1434
     52 H21        -2.5254    5.0762    0.0420 H         1 <0>         0.1460
     53 H22         3.2348    1.8084   -0.0191 H         1 <0>         0.1064
     54 H23         2.3968    0.4971   -0.9163 H         1 <0>         0.0660
     55 H24         2.4140    0.4876    0.8799 H         1 <0>         0.0660
@<TRIPOS>BOND
     1    1    2 1
     2    1   32 1
     3    1   33 1
     4    1   34 1
     5    2    3 1
     6    2    4 1
     7    2    5 1
     8    3   35 1
     9    3   36 1
    10    3   37 1
    11    4   38 1
    12    4   39 1
    13    4   40 1
    14    5    6 2
    15    5    7 am
    16    7    8 1
    17    7   41 1
    18    8    9 am
    19    8   42 1
    20    9   10 2
    21    9   11 1
    22   11   12 1
    23   11   43 1
    24   11   44 1
    25   12   13 1
    26   13   17 1
    27   13   14 2
    28   14   15 1
    29   15   16 2
    30   16   17 1
    31   16   19 1
    32   17   18 1
    33   18   45 1
    34   18   46 1
    35   19   20 1
    36   19   47 1
    37   20   21 2
    38   21   22 1
    39   21   48 1
    40   22   27 ar
    41   22   23 ar
    42   23   24 ar
    43   23   49 1
    44   24   25 ar
    45   24   50 1
    46   25   26 ar
    47   25   28 1
    48   26   27 ar
    49   26   51 1
    50   27   52 1
    51   28   29 2
    52   28   30 1
    53   30   31 1
    54   31   53 1
    55   31   54 1
    56   31   55 1
@<TRIPOS>MOLECULE
ZINC36369702
   63    64     0     0     0
SMALL
USER_CHARGES

@<TRIPOS>ATOM
      1 C1         -0.0187    1.5258    0.0104 C.3       1 <0>        -0.1537
      2 C2          0.0021   -0.0041    0.0020 C.3       1 <0>        -0.1204
      3 C3         -1.4333   -0.5336    0.0129 C.3       1 <0>        -0.0936
      4 C4         -1.4129   -2.0405    0.0046 C.2       1 <0>         0.0426
      5 C5         -1.4996   -2.7458    1.1624 C.2       1 <0>        -0.2604
      6 C6         -1.4788   -4.1552    1.1283 C.2       1 <0>         0.5116
      7 O1         -1.5577   -4.7753    2.1736 O.2       1 <0>        -0.4621
      8 O2         -1.3748   -4.8312   -0.0266 O.3       1 <0>        -0.2666
      9 C7         -1.2848   -4.1912   -1.2122 C.ar      1 <0>         0.1864
     10 C8         -1.3051   -2.7843   -1.2522 C.ar      1 <0>        -0.1839
     11 C9         -1.2172   -2.1172   -2.4791 C.ar      1 <0>        -0.0189
     12 C10        -1.1172   -2.8350   -3.6358 C.ar      1 <0>        -0.2239
     13 C11        -1.1020   -4.2278   -3.6029 C.ar      1 <0>         0.1820
     14 C12        -1.1773   -4.9045   -2.3961 C.ar      1 <0>        -0.1295
     15 C13        -1.1596   -6.4112   -2.3720 C.3       1 <0>        -0.1038
     16 O3         -1.0024   -4.9275   -4.7619 O.3       1 <0>        -0.2749
     17 C14        -0.9175   -4.1709   -5.9712 C.3       1 <0>         0.0402
     18 C15        -0.8137   -5.1101   -7.1452 C.2       1 <0>         0.5250
     19 O4         -0.8125   -6.3093   -6.9641 O.2       1 <0>        -0.5079
     20 N1         -0.7222   -4.6174   -8.3963 N.am      1 <0>        -0.6087
     21 C16        -0.7236   -3.1688   -8.6151 C.3       1 <0>         0.0711
     22 C17        -0.6213   -5.5305   -9.5375 C.3       1 <0>         0.0872
     23 C18        -2.0241   -5.8667  -10.0473 C.3       1 <0>         0.0677
     24 H1         -2.5270   -4.9509  -10.3580 H         1 <0>         0.0968
     25 C19        -1.9187   -6.8202  -11.2391 C.3       1 <0>         0.0540
     26 H2         -1.4159   -7.7360  -10.9284 H         1 <0>         0.1038
     27 C20        -3.3216   -7.1564  -11.7489 C.3       1 <0>         0.0564
     28 H3         -3.8244   -6.2406  -12.0596 H         1 <0>         0.1002
     29 C21        -3.2162   -8.1100  -12.9407 C.3       1 <0>         0.0821
     30 H4         -2.7134   -9.0258  -12.6300 H         1 <0>         0.1044
     31 C22        -4.6191   -8.4462  -13.4505 C.3       1 <0>         0.0448
     32 O5         -4.5272   -9.4256  -14.4870 O.3       1 <0>        -0.5657
     33 O6         -2.4668   -7.4859  -13.9852 O.3       1 <0>        -0.5291
     34 O7         -4.0711   -7.7805  -10.7044 O.3       1 <0>        -0.5310
     35 O8         -1.1693   -6.1962  -12.2836 O.3       1 <0>        -0.5298
     36 O9         -2.7736   -6.4907   -9.0028 O.3       1 <0>        -0.5307
     37 H5          1.0039    1.9031    0.0027 H         1 <0>         0.0595
     38 H6         -0.5459    1.8868   -0.8726 H         1 <0>         0.0565
     39 H7         -0.5289    1.8773    0.9072 H         1 <0>         0.0578
     40 H8          0.5123   -0.3556   -0.8948 H         1 <0>         0.0672
     41 H9          0.5293   -0.3651    0.8851 H         1 <0>         0.0691
     42 H10        -1.9435   -0.1821    0.9097 H         1 <0>         0.0894
     43 H11        -1.9605   -0.1726   -0.8702 H         1 <0>         0.0868
     44 H12        -1.5839   -2.2283    2.1065 H         1 <0>         0.1629
     45 H13        -1.2289   -1.0377   -2.5108 H         1 <0>         0.1438
     46 H14        -1.0497   -2.3200   -4.5827 H         1 <0>         0.1399
     47 H15        -2.1794   -6.7879   -2.4510 H         1 <0>         0.0747
     48 H16        -0.5696   -6.7812   -3.2105 H         1 <0>         0.0792
     49 H17        -0.7170   -6.7544   -1.4368 H         1 <0>         0.0732
     50 H18        -1.8098   -3.5540   -6.0772 H         1 <0>         0.0980
     51 H19        -0.0354   -3.5313   -5.9385 H         1 <0>         0.0965
     52 H20         0.3006   -2.7965   -8.5892 H         1 <0>         0.0640
     53 H21        -1.1658   -2.9485   -9.5866 H         1 <0>         0.0774
     54 H22        -1.3064   -2.6837   -7.8321 H         1 <0>         0.0720
     55 H23        -0.0496   -5.0545  -10.3342 H         1 <0>         0.0965
     56 H24        -0.1184   -6.4463   -9.2268 H         1 <0>         0.0897
     57 H25        -5.2189   -8.8404  -12.6302 H         1 <0>         0.0628
     58 H26        -5.0887   -7.5444  -13.8433 H         1 <0>         0.0465
     59 H27        -5.3812   -9.6870  -14.8579 H         1 <0>         0.3812
     60 H28        -2.8566   -6.6633  -14.3115 H         1 <0>         0.3680
     61 H29        -3.6813   -8.6031  -10.3781 H         1 <0>         0.3763
     62 H30        -1.5591   -5.3736  -12.6099 H         1 <0>         0.3722
     63 H31        -2.3838   -7.3133   -8.6765 H         1 <0>         0.3770
@<TRIPOS>BOND
     1    1    2 1
     2    1   37 1
     3    1   38 1
     4    1   39 1
     5    2    3 1
     6    2   40 1
     7    2   41 1
     8    3    4 1
     9    3   42 1
    10    3   43 1
    11    4   10 1
    12    4    5 2
    13    5    6 1
    14    5   44 1
    15    6    7 2
    16    6    8 1
    17    8    9 1
    18    9   14 ar
    19    9   10 ar
    20   10   11 ar
    21   11   12 ar
    22   11   45 1
    23   12   13 ar
    24   12   46 1
    25   13   14 ar
    26   13   16 1
    27   14   15 1
    28   15   47 1
    29   15   48 1
    30   15   49 1
    31   16   17 1
    32   17   18 1
    33   17   50 1
    34   17   51 1
    35   18   19 2
    36   18   20 am
    37   20   21 1
    38   20   22 1
    39   21   52 1
    40   21   53 1
    41   21   54 1
    42   22   23 1
    43   22   55 1
    44   22   56 1
    45   23   24 1
    46   23   25 1
    47   23   36 1
    48   25   26 1
    49   25   27 1
    50   25   35 1
    51   27   28 1
    52   27   29 1
    53   27   34 1
    54   29   30 1
    55   29   31 1
    56   29   33 1
    57   31   32 1
    58   31   57 1
    59   31   58 1
    60   32   59 1
    61   33   60 1
    62   34   61 1
    63   35   62 1
    64   36   63 1
@<TRIPOS>MOLECULE
ZINC60354767
   48    49     0     0     0
SMALL
USER_CHARGES

@<TRIPOS>ATOM
      1 C1          2.0602    1.1952   -0.3576 C.3       1 <0>        -0.1721
      2 C2          1.3939   -0.1537   -0.2705 C.2       1 <0>         0.5122
      3 O1          0.9078   -0.5235    0.7775 O.2       1 <0>        -0.5128
      4 N1          1.3381   -0.9493   -1.3569 N.am      1 <0>        -0.6715
      5 C3          0.8267   -2.2497   -1.2478 C.ar      1 <0>         0.1430
      6 C4          0.8565   -2.9079   -0.0272 C.ar      1 <0>        -0.1210
      7 C5          0.3514   -4.1916    0.0790 C.ar      1 <0>         0.0793
      8 C6         -0.1849   -4.8229   -1.0334 C.ar      1 <0>         0.0749
      9 C7         -0.2168   -4.1714   -2.2536 C.ar      1 <0>        -0.1184
     10 C8          0.2821   -2.8818   -2.3645 C.ar      1 <0>         0.1357
     11 N2          0.2448   -2.2182   -3.5985 N.am      1 <0>        -0.6659
     12 C9          0.2109   -2.9273   -4.7441 C.2       1 <0>         0.5233
     13 O2          0.3170   -4.1352   -4.7132 O.2       1 <0>        -0.5051
     14 C10         0.0411   -2.2193   -6.0636 C.3       1 <0>        -0.1548
     15 C11         0.0356   -3.2473   -7.1969 C.3       1 <0>         0.1216
     16 N3         -0.1295   -2.5591   -8.4796 N.pl3     1 <0>        -0.7145
     17 C12        -0.1646   -3.2939   -9.6669 C.ar      1 <0>         0.3266
     18 C13        -0.1513   -4.6825   -9.6269 C.ar      1 <0>        -0.2120
     19 C14        -0.1866   -5.4059  -10.8026 C.ar      1 <0>         0.0688
     20 C15        -0.2351   -4.7495  -12.0190 C.ar      1 <0>        -0.7334
     21 C16        -0.2480   -3.3676  -12.0624 C.ar      1 <0>         0.0947
     22 C17        -0.2187   -2.6380  -10.8900 C.ar      1 <0>        -0.1445
     23 N4         -0.2388   -1.1588  -10.9372 N.pl3     1 <0>         0.0485
     24 O3         -0.6713   -0.5299   -9.9997 O.2       1 <0>        -0.1894
     25 O4          0.1774   -0.5795  -11.9134 O.3       1 <0>        -0.1344
     26 S1         -0.2800   -5.6765  -13.5168 S.o2      1 <0>         2.7101
     27 O5          0.2279   -4.8264  -14.5359 O.2       1 <0>        -0.9562
     28 O6          0.2923   -6.9445  -13.2270 O.2       1 <0>        -0.9560
     29 N5         -1.8734   -5.9477  -13.8772 N.pl3     1 <0>        -1.2495
     30 F1         -0.6767   -6.0765   -0.9255 F         1 <0>        -0.1214
     31 F2          0.3810   -4.8315    1.2684 F         1 <0>        -0.1209
     32 H1          3.1176    1.0946   -0.1129 H         1 <0>         0.1031
     33 H2          1.9571    1.5866   -1.3697 H         1 <0>         0.0847
     34 H3          1.5877    1.8799    0.3466 H         1 <0>         0.1028
     35 H4          1.6519   -0.6219   -2.2144 H         1 <0>         0.4119
     36 H5          1.2743   -2.4186    0.8402 H         1 <0>         0.1730
     37 H6         -0.6346   -4.6650   -3.1185 H         1 <0>         0.1722
     38 H7          0.2433   -1.2487   -3.6279 H         1 <0>         0.4138
     39 H8         -0.9021   -1.6730   -6.0641 H         1 <0>         0.1155
     40 H9          0.8654   -1.5214   -6.2102 H         1 <0>         0.1114
     41 H10         0.9788   -3.7936   -7.1964 H         1 <0>         0.0869
     42 H11        -0.7887   -3.9452   -7.0503 H         1 <0>         0.0884
     43 H12        -0.2144   -1.5931   -8.5044 H         1 <0>         0.4203
     44 H13        -0.1130   -5.1957   -8.6774 H         1 <0>         0.1584
     45 H14        -0.1759   -6.4854  -10.7722 H         1 <0>         0.1626
     46 H15        -0.2853   -2.8582  -13.0140 H         1 <0>         0.1695
     47 H16        -2.5679   -5.6070  -13.2919 H         1 <0>         0.4170
     48 H17        -2.1124   -6.4471  -14.6737 H         1 <0>         0.4237
@<TRIPOS>BOND
     1    1    2 1
     2    1   32 1
     3    1   33 1
     4    1   34 1
     5    2    3 2
     6    2    4 am
     7    4    5 1
     8    4   35 1
     9    5   10 ar
    10    5    6 ar
    11    6    7 ar
    12    6   36 1
    13    7    8 ar
    14    7   31 1
    15    8    9 ar
    16    8   30 1
    17    9   10 ar
    18    9   37 1
    19   10   11 1
    20   11   12 am
    21   11   38 1
    22   12   13 2
    23   12   14 1
    24   14   15 1
    25   14   39 1
    26   14   40 1
    27   15   16 1
    28   15   41 1
    29   15   42 1
    30   16   17 1
    31   16   43 1
    32   17   22 ar
    33   17   18 ar
    34   18   19 ar
    35   18   44 1
    36   19   20 ar
    37   19   45 1
    38   20   21 ar
    39   20   26 1
    40   21   22 ar
    41   21   46 1
    42   22   23 1
    43   23   24 2
    44   23   25 1
    45   26   27 2
    46   26   28 2
    47   26   29 1
    48   29   47 1
    49   29   48 1
@<TRIPOS>MOLECULE
ZINC10594745
   54    55     0     0     0
SMALL
USER_CHARGES
dimethyl 5-amino-3-[[2-(3,4-dimethoxybenzoyl)aminoacetyl]oxymethyl]thiophene-2,4-dicarboxylate
@<TRIPOS>ATOM
      1 C1         -4.8445    5.3855    0.0558 C.3       1 <0>         0.0226
      2 O1         -4.9038    3.9577    0.0478 O.3       1 <0>        -0.3006
      3 C2         -3.7204    3.2916    0.0386 C.ar      1 <0>         0.1315
      4 C3         -2.5266    4.0003    0.0367 C.ar      1 <0>        -0.1823
      5 C4         -1.3233    3.3291    0.0323 C.ar      1 <0>        -0.0757
      6 C5         -1.3026    1.9322    0.0187 C.ar      1 <0>        -0.1375
      7 C6         -2.5040    1.2187    0.0205 C.ar      1 <0>        -0.1112
      8 C7         -3.7070    1.8977    0.0304 C.ar      1 <0>         0.0918
      9 O2         -4.8781    1.2063    0.0318 O.3       1 <0>        -0.3036
     10 C8         -4.7895   -0.2199    0.0226 C.3       1 <0>         0.0228
     11 C9         -0.0144    1.2117    0.0087 C.2       1 <0>         0.5710
     12 O3          0.0021   -0.0041    0.0020 O.2       1 <0>        -0.5323
     13 N1          1.1435    1.9014    0.0014 N.am      1 <0>        -0.7204
     14 C10         2.4220    1.1862   -0.0147 C.3       1 <0>         0.1295
     15 C11         3.5540    2.1810   -0.0202 C.2       1 <0>         0.4648
     16 O4          3.3171    3.3658   -0.0115 O.2       1 <0>        -0.5024
     17 O5          4.8254    1.7508   -0.0346 O.3       1 <0>        -0.3332
     18 C12         5.8644    2.7651   -0.0391 C.3       1 <0>         0.1095
     19 C13         7.2163    2.0993   -0.0556 C.2       1 <0>         0.0483
     20 C14         7.8734    1.7808    1.1229 C.2       1 <0>        -0.2728
     21 C15         9.1251    1.1589    1.0225 C.2       1 <0>         0.1858
     22 S1          9.3636    1.0431   -0.6904 S.3       1 <0>         0.2388
     23 C16         7.8407    1.7930   -1.2349 C.2       1 <0>        -0.2589
     24 C17         7.3749    2.0240   -2.6006 C.2       1 <0>         0.5583
     25 O6          6.2974    2.5549   -2.7942 O.2       1 <0>        -0.4924
     26 O7          8.1398    1.6485   -3.6469 O.3       1 <0>        -0.3482
     27 C18         7.6221    1.9049   -4.9540 C.3       1 <0>         0.0360
     28 N2          9.9605    0.7469    2.0336 N.pl3     1 <0>        -0.7868
     29 C19         7.2772    2.0795    2.4285 C.2       1 <0>         0.5301
     30 O8          6.5649    1.2584    2.9739 O.2       1 <0>        -0.4831
     31 O9          7.5186    3.2648    3.0247 O.3       1 <0>        -0.3523
     32 C20         6.8954    3.4920    4.3163 C.3       1 <0>         0.0311
     33 H1         -4.3120    5.7220    0.9453 H         1 <0>         0.0585
     34 H2         -4.3201    5.7323   -0.8346 H         1 <0>         0.0587
     35 H3         -5.8562    5.7911    0.0628 H         1 <0>         0.1043
     36 H4         -2.5411    5.0802    0.0434 H         1 <0>         0.1444
     37 H5         -0.3960    3.8828    0.0350 H         1 <0>         0.1334
     38 H6         -2.4921    0.1388    0.0146 H         1 <0>         0.1512
     39 H7         -5.7927   -0.6463    0.0248 H         1 <0>         0.1039
     40 H8         -4.2584   -0.5453   -0.8719 H         1 <0>         0.0581
     41 H9         -4.2499   -0.5561    0.9080 H         1 <0>         0.0579
     42 H10         1.1303    2.8712    0.0067 H         1 <0>         0.4121
     43 H11         2.4967    0.5556    0.8712 H         1 <0>         0.1174
     44 H12         2.4797    0.5652   -0.9086 H         1 <0>         0.1177
     45 H13         5.7570    3.3913   -0.9247 H         1 <0>         0.1137
     46 H14         5.7740    3.3818    0.8551 H         1 <0>         0.0795
     47 H15         8.3340    1.5552   -5.7017 H         1 <0>         0.1067
     48 H16         6.6756    1.3791   -5.0795 H         1 <0>         0.0644
     49 H17         7.4620    2.9759   -5.0777 H         1 <0>         0.0642
     50 H18        10.8099    0.3295    1.8211 H         1 <0>         0.4221
     51 H19         9.7005    0.8736    2.9595 H         1 <0>         0.4170
     52 H20         7.2356    2.7344    5.0222 H         1 <0>         0.0653
     53 H21         7.1706    4.4807    4.6836 H         1 <0>         0.1062
     54 H22         5.8120    3.4316    4.2126 H         1 <0>         0.0651
@<TRIPOS>BOND
     1    1    2 1
     2    1   33 1
     3    1   34 1
     4    1   35 1
     5    2    3 1
     6    3    8 ar
     7    3    4 ar
     8    4    5 ar
     9    4   36 1
    10    5    6 ar
    11    5   37 1
    12    6    7 ar
    13    6   11 1
    14    7    8 ar
    15    7   38 1
    16    8    9 1
    17    9   10 1
    18   10   39 1
    19   10   40 1
    20   10   41 1
    21   11   12 2
    22   11   13 am
    23   13   14 1
    24   13   42 1
    25   14   15 1
    26   14   43 1
    27   14   44 1
    28   15   16 2
    29   15   17 1
    30   17   18 1
    31   18   19 1
    32   18   45 1
    33   18   46 1
    34   19   23 2
    35   19   20 1
    36   20   21 2
    37   20   29 1
    38   21   22 1
    39   21   28 1
    40   22   23 1
    41   23   24 1
    42   24   25 2
    43   24   26 1
    44   26   27 1
    45   27   47 1
    46   27   48 1
    47   27   49 1
    48   28   50 1
    49   28   51 1
    50   29   30 2
    51   29   31 1
    52   31   32 1
    53   32   52 1
    54   32   53 1
    55   32   54 1
@<TRIPOS>MOLECULE
ZINC18070827
   62    64     0     0     0
SMALL
USER_CHARGES
(2S)-2-(4-ethoxyphenoxy)-N'-[2-[(4S)-4-methyl-2,5-dioxo-4-(p-tolyl)imidazolidin-1-yl]acetyl]propanehydrazide
@<TRIPOS>ATOM
      1 C1          4.4019   11.0243    2.9147 C.3       1 <0>        -0.1532
      2 C2          4.4214    9.6321    2.2805 C.3       1 <0>         0.0536
      3 O1          3.0978    9.0934    2.2734 O.3       1 <0>        -0.3163
      4 C3          2.9392    7.8527    1.7397 C.ar      1 <0>         0.0985
      5 C4          1.6811    7.2701    1.7011 C.ar      1 <0>        -0.1114
      6 C5          1.5198    6.0101    1.1586 C.ar      1 <0>        -0.1701
      7 C6          2.6159    5.3277    0.6521 C.ar      1 <0>         0.0900
      8 C7          3.8749    5.9081    0.6955 C.ar      1 <0>        -0.1032
      9 C8          4.0355    7.1697    1.2345 C.ar      1 <0>        -0.1677
     10 O2          2.4572    4.0872    0.1180 O.3       1 <0>        -0.2833
     11 C9          1.1591    3.4984    0.2196 C.3       1 <0>         0.0814
     12 H1          0.7007    3.7902    1.1645 H         1 <0>         0.1056
     13 C10         0.2873    3.9821   -0.9410 C.3       1 <0>        -0.1807
     14 C11         1.2826    1.9975    0.1636 C.2       1 <0>         0.5209
     15 O3          2.3623    1.4852   -0.0428 O.2       1 <0>        -0.5087
     16 N1          0.1931    1.2246    0.3428 N.am      1 <0>        -0.5177
     17 N2          0.3079   -0.1707    0.2907 N.am      1 <0>        -0.5146
     18 C12        -0.7816   -0.9437    0.4699 C.2       1 <0>         0.5028
     19 O4         -1.8613   -0.4313    0.6763 O.2       1 <0>        -0.5208
     20 C13        -0.6581   -2.4446    0.4139 C.3       1 <0>         0.1109
     21 N3         -1.9727   -3.0514    0.6375 N.am      1 <0>        -0.5605
     22 C14        -2.8500   -3.3402   -0.3439 C.2       1 <0>         0.5425
     23 O5         -2.7063   -3.1530   -1.5331 O.2       1 <0>        -0.4528
     24 C15        -4.0541   -3.9472    0.3484 C.3       1 <0>         0.1717
     25 N4         -3.6805   -3.9280    1.7732 N.am      1 <0>        -0.7134
     26 C16        -2.4482   -3.3924    1.8406 C.2       1 <0>         0.7115
     27 O6         -1.8367   -3.2331    2.8788 O.2       1 <0>        -0.5337
     28 C17        -4.2826   -5.3828   -0.1289 C.3       1 <0>        -0.1448
     29 C18        -5.2820   -3.1063    0.1109 C.ar      1 <0>        -0.1039
     30 C19        -5.4028   -2.3733   -1.0549 C.ar      1 <0>        -0.1002
     31 C20        -6.5312   -1.6057   -1.2749 C.ar      1 <0>        -0.1153
     32 C21        -7.5343   -1.5633   -0.3246 C.ar      1 <0>        -0.0733
     33 C22        -7.4109   -2.2918    0.8437 C.ar      1 <0>        -0.1194
     34 C23        -6.2848   -3.0635    1.0613 C.ar      1 <0>        -0.0906
     35 C24        -8.7621   -0.7224   -0.5622 C.3       1 <0>        -0.1190
     36 H2          3.7469   11.6773    2.3378 H         1 <0>         0.0667
     37 H3          4.0335   10.9523    3.9380 H         1 <0>         0.0666
     38 H4          5.4114   11.4353    2.9201 H         1 <0>         0.0792
     39 H5          5.0764    8.9792    2.8573 H         1 <0>         0.0622
     40 H6          4.7898    9.7042    1.2571 H         1 <0>         0.0623
     41 H7          0.8275    7.8018    2.0949 H         1 <0>         0.1357
     42 H8          0.5402    5.5565    1.1285 H         1 <0>         0.1367
     43 H9          4.7291    5.3749    0.3051 H         1 <0>         0.1368
     44 H10         5.0152    7.6232    1.2649 H         1 <0>         0.1363
     45 H11        -0.7028    3.5330   -0.8634 H         1 <0>         0.0805
     46 H12         0.1980    5.0677   -0.9004 H         1 <0>         0.0838
     47 H13         0.7457    3.6903   -1.8859 H         1 <0>         0.0798
     48 H14        -0.6712    1.6344    0.5039 H         1 <0>         0.4337
     49 H15         1.1714   -0.5805    0.1257 H         1 <0>         0.4360
     50 H16        -0.2825   -2.7419   -0.5652 H         1 <0>         0.1366
     51 H17         0.0335   -2.7813    1.1861 H         1 <0>         0.1390
     52 H18        -4.2171   -4.2428    2.5174 H         1 <0>         0.4418
     53 H19        -3.3986   -5.9826    0.0875 H         1 <0>         0.0739
     54 H20        -5.1438   -5.8051    0.3889 H         1 <0>         0.0845
     55 H21        -4.4682   -5.3834   -1.2030 H         1 <0>         0.0881
     56 H22        -4.6172   -2.4032   -1.7954 H         1 <0>         0.1381
     57 H23        -6.6274   -1.0362   -2.1875 H         1 <0>         0.1268
     58 H24        -8.1944   -2.2584    1.5862 H         1 <0>         0.1272
     59 H25        -6.1884   -3.6327    1.9741 H         1 <0>         0.1220
     60 H26        -8.5971    0.2807   -0.1690 H         1 <0>         0.0733
     61 H27        -8.9617   -0.6650   -1.6322 H         1 <0>         0.0690
     62 H28        -9.6156   -1.1748   -0.0571 H         1 <0>         0.0688
@<TRIPOS>BOND
     1    1    2 1
     2    1   36 1
     3    1   37 1
     4    1   38 1
     5    2    3 1
     6    2   39 1
     7    2   40 1
     8    3    4 1
     9    4    9 ar
    10    4    5 ar
    11    5    6 ar
    12    5   41 1
    13    6    7 ar
    14    6   42 1
    15    7    8 ar
    16    7   10 1
    17    8    9 ar
    18    8   43 1
    19    9   44 1
    20   10   11 1
    21   11   12 1
    22   11   13 1
    23   11   14 1
    24   13   45 1
    25   13   46 1
    26   13   47 1
    27   14   15 2
    28   14   16 am
    29   16   17 1
    30   16   48 1
    31   17   18 am
    32   17   49 1
    33   18   19 2
    34   18   20 1
    35   20   21 1
    36   20   50 1
    37   20   51 1
    38   21   26 am
    39   21   22 am
    40   22   23 2
    41   22   24 1
    42   24   25 1
    43   24   28 1
    44   24   29 1
    45   25   26 am
    46   25   52 1
    47   26   27 2
    48   28   53 1
    49   28   54 1
    50   28   55 1
    51   29   34 ar
    52   29   30 ar
    53   30   31 ar
    54   30   56 1
    55   31   32 ar
    56   31   57 1
    57   32   33 ar
    58   32   35 1
    59   33   34 ar
    60   33   58 1
    61   34   59 1
    62   35   60 1
    63   35   61 1
    64   35   62 1
@<TRIPOS>MOLECULE
ZINC21677856
   54    56     0     0     0
SMALL
USER_CHARGES
4-[2-[[2-[(2,3-dimethoxyphenyl)methyl]pyrazol-3-yl]amino]-2-oxo-ethyl]sulfanyl-3-nitro-benzamide
@<TRIPOS>ATOM
      1 C1          3.3469   -8.8966   -5.5161 C.3       1 <0>         0.0202
      2 O1          3.7922   -8.6735   -4.1767 O.3       1 <0>        -0.3035
      3 C2          3.1921   -7.6675   -3.4860 C.ar      1 <0>         0.1112
      4 C3          2.1969   -6.9116   -4.0846 C.ar      1 <0>        -0.1876
      5 C4          1.5882   -5.8889   -3.3813 C.ar      1 <0>        -0.0840
      6 C5          1.9662   -5.6212   -2.0787 C.ar      1 <0>        -0.1313
      7 C6          2.9620   -6.3681   -1.4773 C.ar      1 <0>        -0.1042
      8 C7          3.5763   -7.3946   -2.1767 C.ar      1 <0>         0.0968
      9 O2          4.5527   -8.1334   -1.5850 O.3       1 <0>        -0.3100
     10 C8          4.1409   -9.3028   -0.8745 C.3       1 <0>         0.0333
     11 C9          3.3752   -6.0701   -0.0590 C.3       1 <0>         0.1783
     12 N1          4.5388   -5.1800   -0.0661 N.pl3     1 <0>        -0.3784
     13 C10         4.5066   -3.8278   -0.0590 C.2       1 <0>         0.3032
     14 C11         5.7940   -3.3862   -0.0748 C.2       1 <0>        -0.2747
     15 C12         6.6303   -4.5058   -0.0823 C.2       1 <0>         0.0560
     16 N2          5.8814   -5.5788   -0.0807 N.2       1 <0>        -0.2645
     17 N3          3.3621   -3.0308   -0.0443 N.am      1 <0>        -0.6558
     18 C13         3.4761   -1.6879   -0.0386 C.2       1 <0>         0.5448
     19 O3          4.5741   -1.1725   -0.0463 O.2       1 <0>        -0.4806
     20 C14         2.2395   -0.8268   -0.0227 C.3       1 <0>        -0.2129
     21 S1          2.7207    0.9222   -0.0184 S.3       1 <0>         0.1346
     22 C15         1.1854    1.7867    0.0003 C.ar      1 <0>        -0.0427
     23 C16        -0.0126    1.0758    0.0080 C.ar      1 <0>        -0.1489
     24 C17        -1.2054    1.7404    0.0172 C.ar      1 <0>        -0.0141
     25 C18        -1.2282    3.1386    0.0297 C.ar      1 <0>        -0.1487
     26 C19        -0.0272    3.8548    0.0216 C.ar      1 <0>         0.0289
     27 C20         1.1719    3.1796    0.0070 C.ar      1 <0>        -0.0443
     28 N4          2.4461    3.9328   -0.0011 N.pl3     1 <0>         0.0283
     29 O4          2.4337    5.1507    0.0048 O.2       1 <0>        -0.1486
     30 O5          3.5071    3.3347   -0.0136 O.3       1 <0>        -0.1394
     31 C21        -2.5164    3.8564    0.0454 C.2       1 <0>         0.5669
     32 O6         -2.5349    5.0723    0.0512 O.2       1 <0>        -0.5343
     33 N5         -3.6732    3.1649    0.0531 N.am      1 <0>        -0.8699
     34 H1          3.9110   -9.7324   -5.9556 H         1 <0>         0.1061
     35 H2          3.5125   -7.9880   -6.1137 H         1 <0>         0.0584
     36 H3          2.2744   -9.1411   -5.5100 H         1 <0>         0.0575
     37 H4          1.8971   -7.1211   -5.1008 H         1 <0>         0.1361
     38 H5          0.8127   -5.3005   -3.8490 H         1 <0>         0.1320
     39 H6          1.4854   -4.8241   -1.5311 H         1 <0>         0.1225
     40 H7          5.0233   -9.8027   -0.4485 H         1 <0>         0.0989
     41 H8          3.6279   -9.9892   -1.5642 H         1 <0>         0.0474
     42 H9          3.4546   -9.0166   -0.0639 H         1 <0>         0.0425
     43 H10         2.5435   -5.5822    0.4704 H         1 <0>         0.0964
     44 H11         3.6348   -7.0088    0.4522 H         1 <0>         0.1107
     45 H12         6.1124   -2.3542   -0.0782 H         1 <0>         0.1721
     46 H13         7.7102   -4.4884   -0.0926 H         1 <0>         0.1866
     47 H14         2.3664   -3.4983   -0.0374 H         1 <0>         0.4298
     48 H15         1.6339   -1.0383   -0.9163 H         1 <0>         0.1280
     49 H16         1.6507   -1.0473    0.8799 H         1 <0>         0.1284
     50 H17         0.0021   -0.0041    0.0020 H         1 <0>         0.1506
     51 H18        -2.1321    1.1857    0.0186 H         1 <0>         0.1484
     52 H19        -0.0406    4.9347    0.0265 H         1 <0>         0.1717
     53 H20        -4.6340    3.7004    0.0648 H         1 <0>         0.4344
     54 H21        -3.6566    2.0650    0.0477 H         1 <0>         0.4173
@<TRIPOS>BOND
     1    1    2 1
     2    1   34 1
     3    1   35 1
     4    1   36 1
     5    2    3 1
     6    3    8 ar
     7    3    4 ar
     8    4    5 ar
     9    4   37 1
    10    5    6 ar
    11    5   38 1
    12    6    7 ar
    13    6   39 1
    14    7    8 ar
    15    7   11 1
    16    8    9 1
    17    9   10 1
    18   10   40 1
    19   10   41 1
    20   10   42 1
    21   11   12 1
    22   11   43 1
    23   11   44 1
    24   12   16 1
    25   12   13 1
    26   13   14 2
    27   13   17 1
    28   14   15 1
    29   14   45 1
    30   15   16 2
    31   15   46 1
    32   17   18 am
    33   17   47 1
    34   18   19 2
    35   18   20 1
    36   20   21 1
    37   20   48 1
    38   20   49 1
    39   21   22 1
    40   22   27 ar
    41   22   23 ar
    42   23   24 ar
    43   23   50 1
    44   24   25 ar
    45   24   51 1
    46   25   26 ar
    47   25   31 1
    48   26   27 ar
    49   26   52 1
    50   27   28 1
    51   28   29 2
    52   28   30 1
    53   31   32 2
    54   31   33 am
    55   33   53 1
    56   33   54 1
@<TRIPOS>MOLECULE
ZINC40613492
   53    55     0     0     0
SMALL
USER_CHARGES

@<TRIPOS>ATOM
      1 C1         -0.0617    1.4369    0.4817 C.ar      1 <0>        -0.0626
      2 C2          1.1265    2.1352    0.3800 C.ar      1 <0>        -0.1872
      3 C3          2.3240    1.4490    0.2465 C.ar      1 <0>         0.1416
      4 C4          2.3267    0.0609    0.2153 C.ar      1 <0>        -0.0541
      5 C5          1.1361   -0.6336    0.3174 C.ar      1 <0>        -0.0621
      6 C6         -0.0575    0.0539    0.4505 C.ar      1 <0>        -0.0596
      7 Cl1        -1.5518   -0.8205    0.5791 Cl        1 <0>        -0.0523
      8 Cl2         3.8240   -0.8015    0.0477 Cl        1 <0>        -0.0330
      9 O1          3.4937    2.1344    0.1458 O.3       1 <0>        -0.2734
     10 C7          3.4153    3.5607    0.1848 C.3       1 <0>         0.0536
     11 C8          4.7995    4.1435    0.0607 C.2       1 <0>         0.5163
     12 O2          5.7587    3.4097   -0.0503 O.2       1 <0>        -0.4967
     13 N1          4.9715    5.4802    0.0730 N.am      1 <0>        -0.5112
     14 N2          6.2583    6.0220   -0.0425 N.pl3     1 <0>        -0.4898
     15 C9          6.4352    7.3968   -0.0298 C.ar      1 <0>         0.4929
     16 C10         7.7084    7.9460   -0.1496 C.ar      1 <0>        -0.2080
     17 C11         7.8327    9.3316   -0.1317 C.ar      1 <0>         0.5317
     18 N3          6.7367   10.0773   -0.0016 N.ar      1 <0>        -0.5495
     19 C12         5.5486    9.5193    0.1092 C.ar      1 <0>         0.3918
     20 N4          5.3889    8.2116    0.0916 N.ar      1 <0>        -0.5701
     21 N5          9.0791    9.9275   -0.2472 N.pl3     1 <0>        -0.6741
     22 C13         9.6290   10.2779   -1.5656 C.3       1 <0>         0.1508
     23 C14        10.0795   11.7422   -1.5315 C.3       1 <0>         0.0430
     24 N6         10.9975   11.9426   -0.4023 N.3       1 <0>        -0.5260
     25 C15        10.3269   11.6922    0.8805 C.3       1 <0>         0.0389
     26 C16         9.8839   10.2315    0.9457 C.3       1 <0>         0.1517
     27 C17        11.5861   13.2881   -0.4348 C.3       1 <0>         0.0552
     28 C18        12.7126   13.3770    0.5967 C.3       1 <0>         0.0792
     29 O3         13.7709   12.4922    0.2238 O.3       1 <0>        -0.5585
     30 N7          8.8993    7.0785   -0.2918 N.pl3     1 <0>         0.0385
     31 O4          9.2751    6.7430   -1.3908 O.2       1 <0>        -0.1280
     32 O5          9.4962    6.7054    0.6911 O.3       1 <0>        -0.1282
     33 H1         -0.9939    1.9713    0.5902 H         1 <0>         0.1463
     34 H2          1.1223    3.2149    0.4041 H         1 <0>         0.1481
     35 H3          1.1373   -1.7134    0.2932 H         1 <0>         0.1538
     36 H4          2.7972    3.9134   -0.6408 H         1 <0>         0.1085
     37 H5          2.9724    3.8745    1.1300 H         1 <0>         0.1085
     38 H6          4.2043    6.0671    0.1617 H         1 <0>         0.4393
     39 H7          7.0255    5.4350   -0.1312 H         1 <0>         0.4481
     40 H8          4.6797   10.1523    0.2136 H         1 <0>         0.2203
     41 H9         10.4823    9.6374   -1.7884 H         1 <0>         0.0770
     42 H10         8.8615   10.1486   -2.3286 H         1 <0>         0.0757
     43 H11        10.5896   11.9876   -2.4630 H         1 <0>         0.0883
     44 H12         9.2094   12.3877   -1.4119 H         1 <0>         0.0412
     45 H13        11.0165   11.9014    1.6983 H         1 <0>         0.0882
     46 H14         9.4534   12.3385    0.9665 H         1 <0>         0.0406
     47 H15         9.2848   10.0715    1.8421 H         1 <0>         0.0749
     48 H16        10.7622    9.5864    0.9689 H         1 <0>         0.0764
     49 H17        11.9874   13.4852   -1.4289 H         1 <0>         0.0850
     50 H18        10.8192   14.0260   -0.1997 H         1 <0>         0.0486
     51 H19        13.0900   14.3988    0.6355 H         1 <0>         0.0491
     52 H20        12.3305   13.0934    1.5774 H         1 <0>         0.0452
     53 H21        14.5208   12.4965    0.8344 H         1 <0>         0.3762
@<TRIPOS>BOND
     1    1    6 ar
     2    1    2 ar
     3    1   33 1
     4    2    3 ar
     5    2   34 1
     6    3    4 ar
     7    3    9 1
     8    4    5 ar
     9    4    8 1
    10    5    6 ar
    11    5   35 1
    12    6    7 1
    13    9   10 1
    14   10   11 1
    15   10   36 1
    16   10   37 1
    17   11   12 2
    18   11   13 am
    19   13   14 1
    20   13   38 1
    21   14   15 1
    22   14   39 1
    23   15   20 ar
    24   15   16 ar
    25   16   17 ar
    26   16   30 1
    27   17   18 ar
    28   17   21 1
    29   18   19 ar
    30   19   20 ar
    31   19   40 1
    32   21   26 1
    33   21   22 1
    34   22   23 1
    35   22   41 1
    36   22   42 1
    37   23   24 1
    38   23   43 1
    39   23   44 1
    40   24   25 1
    41   24   27 1
    42   25   26 1
    43   25   45 1
    44   25   46 1
    45   26   47 1
    46   26   48 1
    47   27   28 1
    48   27   49 1
    49   27   50 1
    50   28   29 1
    51   28   51 1
    52   28   52 1
    53   29   53 1
    54   30   31 2
    55   30   32 1
@<TRIPOS>MOLECULE
ZINC65748871
   61    63     0     0     0
SMALL
USER_CHARGES

@<TRIPOS>ATOM
      1 C1          0.1096    1.5031   -0.0016 C.3       1 <0>        -0.1221
      2 C2          0.0965   -0.0038   -0.0068 C.ar      1 <0>        -0.0551
      3 C3         -0.5808   -0.6832   -1.0040 C.ar      1 <0>        -0.1313
      4 C4         -0.5968   -2.0625   -1.0147 C.ar      1 <0>        -0.0586
      5 C5          0.0725   -2.7730   -0.0165 C.ar      1 <0>        -0.1545
      6 C6          0.7539   -2.0813    0.9867 C.ar      1 <0>        -0.0756
      7 C7          0.7666   -0.7019    0.9824 C.ar      1 <0>        -0.1317
      8 C8          0.0592   -4.2518   -0.0214 C.2       1 <0>         0.4674
      9 O1         -0.0569   -4.8559   -1.0717 O.2       1 <0>        -0.4660
     10 C9          0.1857   -4.9894    1.2376 C.2       1 <0>        -0.0658
     11 C10         0.1920   -4.4440    2.5070 C.2       1 <0>        -0.1252
     12 C11         0.3325   -5.5027    3.4075 C.2       1 <0>        -0.1771
     13 C12         0.4081   -6.6514    2.6914 C.2       1 <0>         0.0490
     14 N1          0.3141   -6.3537    1.3726 N.pl3     1 <0>        -0.4024
     15 C13         0.3473   -7.3218    0.2735 C.3       1 <0>         0.0586
     16 C14         0.5648   -8.0348    3.2682 C.3       1 <0>        -0.0435
     17 C15        -0.7900   -8.5811    3.6386 C.2       1 <0>         0.4625
     18 O2         -1.7811   -7.9155    3.4531 O.2       1 <0>        -0.4659
     19 O3         -0.8956   -9.8073    4.1744 O.3       1 <0>        -0.3344
     20 C16        -2.2105  -10.2614    4.5013 C.3       1 <0>         0.2353
     21 H1         -2.8468  -10.1981    3.6185 H         1 <0>         0.0850
     22 C17        -2.1447  -11.7140    4.9801 C.3       1 <0>         0.0592
     23 H2         -1.7725  -12.3467    4.1743 H         1 <0>         0.0922
     24 C18        -3.5484  -12.1740    5.3853 C.3       1 <0>         0.1275
     25 H3         -4.2050  -12.1505    4.5156 H         1 <0>         0.0881
     26 C19        -4.0916  -11.2306    6.4630 C.3       1 <0>         0.0925
     27 H4         -3.4626  -11.2916    7.3511 H         1 <0>         0.0923
     28 C20        -4.0823   -9.7967    5.9269 C.3       1 <0>         0.0864
     29 H5         -4.7432   -9.7274    5.0629 H         1 <0>         0.1129
     30 O4         -2.7531   -9.4429    5.5394 O.3       1 <0>        -0.3534
     31 C21        -4.5601   -8.8550    7.0020 C.2       1 <0>         0.4674
     32 O5         -3.8068   -8.0286    7.4598 O.2       1 <0>        -0.4648
     33 O6         -5.8225   -8.9344    7.4512 O.3       1 <0>        -0.3473
     34 C22        -6.2075   -8.0106    8.4712 C.3       1 <0>         0.0941
     35 C23        -7.6475   -8.2481    8.8466 C.2       1 <0>        -0.1649
     36 C24        -7.9989   -8.2799   10.1082 C.2       1 <0>        -0.1604
     37 O7         -5.4286  -11.6078    6.7980 O.3       1 <0>        -0.5384
     38 O8         -3.4850  -13.5053    5.9007 O.3       1 <0>        -0.5301
     39 O9         -1.2673  -11.8069    6.1043 O.3       1 <0>        -0.5335
     40 H6          0.9618    1.8611   -0.5792 H         1 <0>         0.0761
     41 H7         -0.8131    1.8760   -0.4461 H         1 <0>         0.0703
     42 H8          0.1896    1.8622    1.0245 H         1 <0>         0.0709
     43 H9         -1.0984   -0.1324   -1.7754 H         1 <0>         0.1299
     44 H10        -1.1261   -2.5916   -1.7934 H         1 <0>         0.1314
     45 H11         1.2732   -2.6249    1.7620 H         1 <0>         0.1409
     46 H12         1.2970   -0.1655    1.7553 H         1 <0>         0.1308
     47 H13         0.1048   -3.3967    2.7561 H         1 <0>         0.1552
     48 H14         0.3742   -5.4206    4.4836 H         1 <0>         0.1467
     49 H15         1.3780   -7.4709   -0.0484 H         1 <0>         0.0813
     50 H16        -0.0683   -8.2707    0.6125 H         1 <0>         0.0794
     51 H17        -0.2430   -6.9441   -0.5613 H         1 <0>         0.1061
     52 H18         1.0295   -8.6865    2.5283 H         1 <0>         0.1165
     53 H19         1.1934   -7.9886    4.1575 H         1 <0>         0.1374
     54 H20        -5.5753   -8.1529    9.3477 H         1 <0>         0.0783
     55 H21        -6.0917   -6.9918    8.1013 H         1 <0>         0.0829
     56 H22        -8.3899   -8.3922    8.0755 H         1 <0>         0.1242
     57 H23        -9.0309   -8.4501   10.3772 H         1 <0>         0.1120
     58 H24        -7.2565   -8.1358   10.8793 H         1 <0>         0.1014
     59 H25        -5.8360  -11.0517    7.4762 H         1 <0>         0.3872
     60 H26        -3.1433  -14.1549    5.2712 H         1 <0>         0.3839
     61 H27        -0.3605  -11.5264    5.9197 H         1 <0>         0.3888
@<TRIPOS>BOND
     1    1    2 1
     2    1   40 1
     3    1   41 1
     4    1   42 1
     5    2    7 ar
     6    2    3 ar
     7    3    4 ar
     8    3   43 1
     9    4    5 ar
    10    4   44 1
    11    5    6 ar
    12    5    8 1
    13    6    7 ar
    14    6   45 1
    15    7   46 1
    16    8    9 2
    17    8   10 1
    18   10   14 1
    19   10   11 2
    20   11   12 1
    21   11   47 1
    22   12   13 2
    23   12   48 1
    24   13   14 1
    25   13   16 1
    26   14   15 1
    27   15   49 1
    28   15   50 1
    29   15   51 1
    30   16   17 1
    31   16   52 1
    32   16   53 1
    33   17   18 2
    34   17   19 1
    35   19   20 1
    36   20   21 1
    37   20   30 1
    38   20   22 1
    39   22   23 1
    40   22   24 1
    41   22   39 1
    42   24   25 1
    43   24   26 1
    44   24   38 1
    45   26   27 1
    46   26   28 1
    47   26   37 1
    48   28   29 1
    49   28   30 1
    50   28   31 1
    51   31   32 2
    52   31   33 1
    53   33   34 1
    54   34   35 1
    55   34   54 1
    56   34   55 1
    57   35   36 2
    58   35   56 1
    59   36   57 1
    60   36   58 1
    61   37   59 1
    62   38   60 1
    63   39   61 1
@<TRIPOS>MOLECULE
ZINC13461737
   52    53     0     0     0
SMALL
USER_CHARGES
3-[[4-[[(1S,2S)-2-hydroxy-1-(hydroxymethyl)-2-(4-nitrophenyl)ethyl]amino]-3-nitro-phenyl]sulfonylamino]propanoic acid
@<TRIPOS>ATOM
      1 C1         -0.0420    0.5672    0.2103 C.ar      1 <0>        -0.1056
      2 C2          1.2428    1.0715    0.2881 C.ar      1 <0>        -0.0484
      3 C3          1.4486    2.4382    0.3109 C.ar      1 <0>        -0.0413
      4 C4          0.3697    3.3007    0.2559 C.ar      1 <0>        -0.0460
      5 C5         -0.9151    2.7963    0.1786 C.ar      1 <0>        -0.1110
      6 C6         -1.1206    1.4296    0.1500 C.ar      1 <0>        -0.0709
      7 C7         -2.5207    0.8799    0.0588 C.3       1 <0>         0.1444
      8 H1         -2.4845   -0.1491   -0.2990 H         1 <0>         0.1344
      9 C8         -3.1739    0.9162    1.4419 C.3       1 <0>         0.1113
     10 H2         -2.5903    0.3107    2.1353 H         1 <0>         0.1138
     11 C9         -4.5955    0.3580    1.3494 C.3       1 <0>         0.0632
     12 O1         -5.3263    1.0786    0.3550 O.3       1 <0>        -0.5486
     13 N1         -3.2226    2.2991    1.9229 N.pl3     1 <0>        -0.7108
     14 C10        -3.2708    2.5603    3.2941 C.ar      1 <0>         0.3210
     15 C11        -3.1523    1.5188    4.2059 C.ar      1 <0>        -0.2141
     16 C12        -3.1947    1.7813    5.5609 C.ar      1 <0>         0.0725
     17 C13        -3.3663    3.0779    6.0106 C.ar      1 <0>        -0.7253
     18 C14        -3.4903    4.1160    5.1059 C.ar      1 <0>         0.0909
     19 C15        -3.4431    3.8612    3.7492 C.ar      1 <0>        -0.1350
     20 N2         -3.5755    4.9732    2.7815 N.pl3     1 <0>         0.0372
     21 O2         -3.0736    6.0559    3.0255 O.2       1 <0>        -0.1413
     22 O3         -4.1862    4.8057    1.7411 O.3       1 <0>        -0.1771
     23 S1         -3.4277    3.4073    7.7404 S.o2      1 <0>         2.7004
     24 O4         -2.7418    2.3408    8.3816 O.2       1 <0>        -0.9488
     25 O5         -3.0494    4.7667    7.9086 O.2       1 <0>        -0.9607
     26 N3         -5.0137    3.2966    8.2040 N.pl3     1 <0>        -1.1136
     27 C16        -5.7125    2.0116    8.1228 C.3       1 <0>         0.1308
     28 C17        -7.0054    2.0818    8.9379 C.3       1 <0>        -0.1651
     29 C18        -7.7243    0.7599    8.8544 C.2       1 <0>         0.4646
     30 O6         -7.2511   -0.1454    8.2091 O.co2     1 <0>        -0.6403
     31 O7         -3.2859    1.6737   -0.8503 O.3       1 <0>        -0.5161
     32 N4          2.8242    2.9782    0.3937 N.pl3     1 <0>         0.0263
     33 O8          3.7749    2.2183    0.4418 O.2       1 <0>        -0.1556
     34 O9          3.0056    4.1825    0.4139 O.3       1 <0>        -0.1544
     35 H3         -0.2027   -0.5007    0.1921 H         1 <0>         0.1531
     36 H4          2.0857    0.3977    0.3307 H         1 <0>         0.1583
     37 H5          0.5304    4.3685    0.2738 H         1 <0>         0.1572
     38 H6         -1.7580    3.4701    0.1360 H         1 <0>         0.1360
     39 H7         -4.5547   -0.6967    1.0773 H         1 <0>         0.0627
     40 H8         -5.0915    0.4655    2.3140 H         1 <0>         0.0579
     41 H9         -6.2383    0.7776    0.2420 H         1 <0>         0.3815
     42 H10        -3.2213    3.0334    1.2890 H         1 <0>         0.4092
     43 H11        -3.0227    0.5055    3.8553 H         1 <0>         0.1536
     44 H12        -3.0985    0.9726    6.2702 H         1 <0>         0.1631
     45 H13        -3.6246    5.1273    5.4604 H         1 <0>         0.1640
     46 H14        -5.4799    4.0825    8.5293 H         1 <0>         0.4181
     47 H15        -5.9506    1.7926    7.0819 H         1 <0>         0.0654
     48 H16        -5.0732    1.2244    8.5226 H         1 <0>         0.0841
     49 H17        -6.7673    2.3007    9.9788 H         1 <0>         0.0758
     50 H18        -7.6447    2.8689    8.5381 H         1 <0>         0.0725
     51 H19        -3.3604    2.6032   -0.5942 H         1 <0>         0.3735
     52 O10        -8.8903    0.5883    9.4968 O.co2     1 <0>        -0.7668
@<TRIPOS>BOND
     1    1    6 ar
     2    1    2 ar
     3    1   35 1
     4    2    3 ar
     5    2   36 1
     6    3    4 ar
     7    3   32 1
     8    4    5 ar
     9    4   37 1
    10    5    6 ar
    11    5   38 1
    12    6    7 1
    13    7    8 1
    14    7    9 1
    15    7   31 1
    16    9   10 1
    17    9   11 1
    18    9   13 1
    19   11   12 1
    20   11   39 1
    21   11   40 1
    22   12   41 1
    23   13   14 1
    24   13   42 1
    25   14   19 ar
    26   14   15 ar
    27   15   16 ar
    28   15   43 1
    29   16   17 ar
    30   16   44 1
    31   17   18 ar
    32   17   23 1
    33   18   19 ar
    34   18   45 1
    35   19   20 1
    36   20   21 2
    37   20   22 1
    38   23   24 2
    39   23   25 2
    40   23   26 1
    41   26   27 1
    42   26   46 1
    43   27   28 1
    44   27   47 1
    45   27   48 1
    46   28   29 1
    47   28   49 1
    48   28   50 1
    49   29   30 2
    50   29   52 1
    51   31   51 1
    52   32   33 2
    53   32   34 1
@<TRIPOS>MOLECULE
ZINC20911688
   61    63     0     0     0
SMALL
USER_CHARGES
2-[[4-amino-5-[(N'E)-N'-[(1-isopropyl-3,5-dimethyl-pyrazol-4-yl)methylene]hydrazino]-1,2,4-triazol-3-yl]sulfanyl]-N-[5-(2-methoxyethylsulfanyl)-1,3,4-thiadiazol-2-yl]acetamide
@<TRIPOS>ATOM
      1 C1          2.2536  -12.6310   -0.0862 C.3       1 <0>        -0.0927
      2 C2          1.4097  -13.8795   -0.0847 C.2       1 <0>         0.1198
      3 C3         -0.0009  -13.9257   -0.0724 C.2       1 <0>        -0.2106
      4 C4         -0.3669  -15.2541   -0.0708 C.2       1 <0>         0.1205
      5 N1          0.7666  -15.9845   -0.0899 N.pl3     1 <0>        -0.3553
      6 N2          1.8565  -15.1065   -0.0951 N.2       1 <0>        -0.2970
      7 C5          0.8439  -17.4474   -0.0990 C.3       1 <0>         0.1534
      8 C6          1.5799  -17.9114   -1.3575 C.3       1 <0>        -0.1633
      9 C7          1.6022  -17.9257    1.1408 C.3       1 <0>        -0.1634
     10 C8         -1.7747  -15.7917   -0.0543 C.3       1 <0>        -0.1020
     11 C9         -0.9144  -12.7662   -0.0574 C.2       1 <0>         0.1491
     12 N3         -0.4332  -11.5611   -0.0552 N.2       1 <0>        -0.2106
     13 N4         -1.3002  -10.4607   -0.0410 N.pl3     1 <0>        -0.5658
     14 C10        -0.7858   -9.1724   -0.0386 C.2       1 <0>         0.4935
     15 N5          0.4850   -8.8499   -0.0491 N.2       1 <0>        -0.3154
     16 N6          0.5769   -7.4519   -0.0477 N.2       1 <0>        -0.3044
     17 C11        -0.6410   -6.9657   -0.0281 C.2       1 <0>         0.1702
     18 N7         -1.5149   -8.0158   -0.0254 N.pl3     1 <0>        -0.2633
     19 N8         -2.8779   -7.9261   -0.0118 N.3       1 <0>        -0.7783
     20 S1         -1.0742   -5.2578   -0.0153 S.3       1 <0>         0.0790
     21 C12         0.5240   -4.3997   -0.0258 C.3       1 <0>        -0.1421
     22 C13         0.2944   -2.9103   -0.0160 C.2       1 <0>         0.5356
     23 O1         -0.8361   -2.4710   -0.0033 O.2       1 <0>        -0.4536
     24 N9          1.3453   -2.0665   -0.0215 N.am      1 <0>        -0.6204
     25 C14         1.1332   -0.6900   -0.0125 C.2       1 <0>         0.2898
     26 N10         0.0021   -0.0041    0.0020 N.2       1 <0>        -0.2732
     27 N11        -0.0150    1.2570    0.0090 N.2       1 <0>        -0.2536
     28 C15         1.1000    1.9728    0.0022 C.2       1 <0>         0.0107
     29 S2          2.3136    0.6564   -0.0165 S.3       1 <0>         0.0527
     30 S3          1.3244    3.7204    0.0086 S.3       1 <0>         0.0671
     31 C16        -0.3654    4.3798    0.0281 C.3       1 <0>        -0.1225
     32 C17        -0.3161    5.9090    0.0351 C.3       1 <0>         0.0760
     33 O2         -1.6472    6.4284    0.0505 O.3       1 <0>        -0.3838
     34 C18        -1.7141    7.8558    0.0582 C.3       1 <0>         0.0284
     35 H1          1.5998  -11.7465   -0.0756 H         1 <0>         0.1136
     36 H2          2.8802  -12.6130   -0.9901 H         1 <0>         0.0721
     37 H3          2.8969  -12.6222    0.8061 H         1 <0>         0.0721
     38 H4         -0.1886  -17.8267   -0.0920 H         1 <0>         0.1029
     39 H5          1.6379  -19.0098   -1.3643 H         1 <0>         0.0782
     40 H6          2.5962  -17.4905   -1.3641 H         1 <0>         0.0743
     41 H7          1.0347  -17.5675   -2.2489 H         1 <0>         0.0615
     42 H8          1.6603  -19.0241    1.1340 H         1 <0>         0.0782
     43 H9          1.0731  -17.5921    2.0456 H         1 <0>         0.0614
     44 H10         2.6184  -17.5047    1.1341 H         1 <0>         0.0743
     45 H11        -1.7473  -16.8914   -0.0571 H         1 <0>         0.0747
     46 H12        -2.3135  -15.4360   -0.9449 H         1 <0>         0.0899
     47 H13        -2.2908  -15.4401    0.8512 H         1 <0>         0.0900
     48 H14        -2.0030  -12.9238   -0.0481 H         1 <0>         0.1189
     49 H15        -2.3888  -10.6183   -0.0318 H         1 <0>         0.4046
     50 H16        -3.3641   -6.9394   -0.0018 H         1 <0>         0.4489
     51 H17        -3.4893   -8.8405   -0.0108 H         1 <0>         0.4368
     52 H18         1.1007   -4.6877    0.8655 H         1 <0>         0.1388
     53 H19         1.0840   -4.6785   -0.9306 H         1 <0>         0.1388
     54 H20         2.3705   -2.4650   -0.0331 H         1 <0>         0.4633
     55 H21        -0.9041    4.0344   -0.8666 H         1 <0>         0.1100
     56 H22        -0.8868    4.0256    0.9296 H         1 <0>         0.1100
     57 H23         0.2226    6.2544    0.9298 H         1 <0>         0.0640
     58 H24         0.2053    6.2632   -0.8664 H         1 <0>         0.0640
     59 H25        -2.7672    8.1734    0.0699 H         1 <0>         0.0927
     60 H26        -1.2220    8.2508   -0.8428 H         1 <0>         0.0459
     61 H27        -1.2046    8.2419    0.9534 H         1 <0>         0.0459
@<TRIPOS>BOND
     1    1    2 1
     2    1   35 1
     3    1   36 1
     4    1   37 1
     5    2    6 2
     6    2    3 1
     7    3    4 2
     8    3   11 1
     9    4    5 1
    10    4   10 1
    11    5    6 1
    12    5    7 1
    13    7    8 1
    14    7    9 1
    15    7   38 1
    16    8   39 1
    17    8   40 1
    18    8   41 1
    19    9   42 1
    20    9   43 1
    21    9   44 1
    22   10   45 1
    23   10   46 1
    24   10   47 1
    25   11   12 2
    26   11   48 1
    27   12   13 1
    28   13   14 1
    29   13   49 1
    30   14   18 1
    31   14   15 2
    32   15   16 1
    33   16   17 2
    34   17   18 1
    35   17   20 1
    36   18   19 1
    37   19   50 1
    38   19   51 1
    39   20   21 1
    40   21   22 1
    41   21   52 1
    42   21   53 1
    43   22   23 2
    44   22   24 am
    45   24   25 1
    46   24   54 1
    47   25   29 1
    48   25   26 2
    49   26   27 1
    50   27   28 2
    51   28   29 1
    52   28   30 1
    53   30   31 1
    54   31   32 1
    55   31   55 1
    56   31   56 1
    57   32   33 1
    58   32   57 1
    59   32   58 1
    60   33   34 1
    61   34   59 1
    62   34   60 1
    63   34   61 1
@<TRIPOS>MOLECULE
ZINC30954114
   64    66     0     0     0
SMALL
USER_CHARGES
N-[(3-acetamido-2,4-dimethyl-phenyl)methyl]-2-[[4-amino-5-[(3,4-dimethylphenoxy)methyl]-1,2,4-triazol-3-yl]sulfanyl]acetamide
@<TRIPOS>ATOM
      1 C1         -7.8985  -12.0320    7.9822 C.3       1 <0>        -0.1121
      2 C2         -7.0505  -10.9647    7.3398 C.ar      1 <0>        -0.1217
      3 C3         -6.3784  -10.0491    8.1287 C.ar      1 <0>        -0.0750
      4 C4         -5.5964   -9.0732    7.5425 C.ar      1 <0>        -0.2109
      5 C5         -5.4938   -9.0054    6.1604 C.ar      1 <0>         0.1266
      6 C6         -6.1686   -9.9252    5.3713 C.ar      1 <0>        -0.1448
      7 C7         -6.9454  -10.9028    5.9627 C.ar      1 <0>        -0.0458
      8 C8         -7.6791  -11.9021    5.1060 C.3       1 <0>        -0.1179
      9 O1         -4.7291   -8.0428    5.5810 O.3       1 <0>        -0.3096
     10 C9         -4.0631   -7.1297    6.4554 C.3       1 <0>         0.1557
     11 C10        -3.2691   -6.1419    5.6400 C.2       1 <0>         0.1500
     12 N1         -2.0309   -6.2754    5.2569 N.2       1 <0>        -0.2432
     13 N2         -1.6675   -5.2495    4.5732 N.2       1 <0>        -0.2801
     14 C11        -2.6605   -4.3948    4.4896 C.2       1 <0>         0.1219
     15 N3         -3.7148   -4.9393    5.1651 N.pl3     1 <0>        -0.2004
     16 N4         -4.9568   -4.3957    5.3320 N.3       1 <0>        -0.7616
     17 S1         -2.6392   -2.8423    3.6566 S.3       1 <0>         0.0791
     18 C12        -0.9395   -2.8428    3.0343 C.3       1 <0>        -0.1462
     19 C13        -0.6856   -1.5717    2.2658 C.2       1 <0>         0.5356
     20 O2         -1.5669   -0.7466    2.1501 O.2       1 <0>        -0.5300
     21 N5          0.5210   -1.3517    1.7069 N.am      1 <0>        -0.7276
     22 C14         0.7660   -0.1187    0.9546 C.3       1 <0>         0.1680
     23 C15         2.1794   -0.1216    0.4319 C.ar      1 <0>        -0.1128
     24 C16         3.1618    0.5931    1.0928 C.ar      1 <0>        -0.0880
     25 C17         4.4599    0.5923    0.6169 C.ar      1 <0>        -0.1203
     26 C18         4.7796   -0.1229   -0.5208 C.ar      1 <0>        -0.0606
     27 C19         3.7955   -0.8412   -1.1869 C.ar      1 <0>         0.1357
     28 C20         2.4935   -0.8425   -0.7033 C.ar      1 <0>        -0.0598
     29 C21         1.4237   -1.6260   -1.4193 C.3       1 <0>        -0.1179
     30 N6          4.1159   -1.5663   -2.3399 N.am      1 <0>        -0.6976
     31 C22         4.8360   -2.7015   -2.2436 C.2       1 <0>         0.5146
     32 O3          5.1235   -3.1466   -1.1526 O.2       1 <0>        -0.5303
     33 C23         5.2838   -3.4179   -3.4915 C.3       1 <0>        -0.1774
     34 C24         6.1948   -0.1233   -1.0388 C.3       1 <0>        -0.1166
     35 H1         -7.8597  -11.9222    9.0760 H         1 <0>         0.0642
     36 H2         -7.5160  -13.0238    7.6994 H         1 <0>         0.0691
     37 H3         -8.9389  -11.9290    7.6400 H         1 <0>         0.0686
     38 H4         -6.4619  -10.0998    9.2043 H         1 <0>         0.1265
     39 H5         -5.0681   -8.3611    8.1592 H         1 <0>         0.1276
     40 H6         -6.0865   -9.8775    4.2955 H         1 <0>         0.1303
     41 H7         -7.4754  -11.6950    4.0450 H         1 <0>         0.0674
     42 H8         -8.7600  -11.8227    5.2942 H         1 <0>         0.0740
     43 H9         -7.3375  -12.9180    5.3535 H         1 <0>         0.0746
     44 H10        -4.8080   -6.5914    7.0598 H         1 <0>         0.0812
     45 H11        -3.3851   -7.6861    7.1193 H         1 <0>         0.1057
     46 H12        -5.1902   -3.4131    4.8960 H         1 <0>         0.4516
     47 H13        -5.7235   -4.9405    5.9024 H         1 <0>         0.4491
     48 H14        -0.2393   -2.9059    3.8803 H         1 <0>         0.1301
     49 H15        -0.7921   -3.7079    2.3711 H         1 <0>         0.1296
     50 H16         1.3218   -2.0980    1.8156 H         1 <0>         0.4294
     51 H17         0.0631   -0.0583    0.1107 H         1 <0>         0.0793
     52 H18         0.6211    0.7488    1.6152 H         1 <0>         0.0781
     53 H19         2.9145    1.1528    1.9827 H         1 <0>         0.1275
     54 H20         5.2249    1.1511    1.1355 H         1 <0>         0.1283
     55 H21         1.8615   -2.1303   -2.2934 H         1 <0>         0.0668
     56 H22         0.6283   -0.9423   -1.7507 H         1 <0>         0.0733
     57 H23         1.0004   -2.3773   -0.7364 H         1 <0>         0.0726
     58 H24         3.7801   -1.2098   -3.3249 H         1 <0>         0.4307
     59 H25         5.8547   -4.3162   -3.2137 H         1 <0>         0.0953
     60 H26         5.9204   -2.7493   -4.0897 H         1 <0>         0.0910
     61 H27         4.4032   -3.7111   -4.0820 H         1 <0>         0.0906
     62 H28         6.2532   -0.7435   -1.9454 H         1 <0>         0.0627
     63 H29         6.8665   -0.5332   -0.2702 H         1 <0>         0.0736
     64 H30         6.4976    0.9066   -1.2789 H         1 <0>         0.0723
@<TRIPOS>BOND
     1    1    2 1
     2    1   35 1
     3    1   36 1
     4    1   37 1
     5    2    7 ar
     6    2    3 ar
     7    3    4 ar
     8    3   38 1
     9    4    5 ar
    10    4   39 1
    11    5    6 ar
    12    5    9 1
    13    6    7 ar
    14    6   40 1
    15    7    8 1
    16    8   41 1
    17    8   42 1
    18    8   43 1
    19    9   10 1
    20   10   11 1
    21   10   44 1
    22   10   45 1
    23   11   15 1
    24   11   12 2
    25   12   13 1
    26   13   14 2
    27   14   15 1
    28   14   17 1
    29   15   16 1
    30   16   46 1
    31   16   47 1
    32   17   18 1
    33   18   19 1
    34   18   48 1
    35   18   49 1
    36   19   20 2
    37   19   21 am
    38   21   22 1
    39   21   50 1
    40   22   23 1
    41   22   51 1
    42   22   52 1
    43   23   28 ar
    44   23   24 ar
    45   24   25 ar
    46   24   53 1
    47   25   26 ar
    48   25   54 1
    49   26   27 ar
    50   26   34 1
    51   27   28 ar
    52   27   30 1
    53   28   29 1
    54   29   55 1
    55   29   56 1
    56   29   57 1
    57   30   31 am
    58   30   58 1
    59   31   32 2
    60   31   33 1
    61   33   59 1
    62   33   60 1
    63   33   61 1
    64   34   62 1
    65   34   63 1
    66   34   64 1
@<TRIPOS>MOLECULE
ZINC59310491
   56    58     0     0     0
SMALL
USER_CHARGES

@<TRIPOS>ATOM
      1 C1         -1.6757    0.6523    2.9181 C.3       1 <0>        -0.1740
      2 C2         -1.7481   -0.7036    2.2644 C.2       1 <0>         0.5098
      3 O1         -2.5045   -1.5465    2.6984 O.2       1 <0>        -0.5244
      4 N1         -0.9724   -0.9796    1.1974 N.am      1 <0>        -0.6750
      5 C3         -0.9678   -2.2674    0.6500 C.ar      1 <0>         0.1571
      6 C4          0.2059   -2.7971    0.1282 C.ar      1 <0>        -0.1549
      7 C5          0.2113   -4.0685   -0.4119 C.ar      1 <0>        -0.0826
      8 C6         -0.9498   -4.8173   -0.4355 C.ar      1 <0>        -0.1313
      9 C7         -2.1265   -4.2934    0.0845 C.ar      1 <0>         0.1589
     10 C8         -2.1339   -3.0187    0.6330 C.ar      1 <0>        -0.1443
     11 N2         -3.3018   -5.0523    0.0603 N.am      1 <0>        -0.6651
     12 C9         -3.2449   -6.3884    0.2277 C.2       1 <0>         0.5388
     13 O2         -2.1700   -6.9433    0.3155 O.2       1 <0>        -0.4987
     14 C10        -4.5168   -7.1929    0.3058 C.3       1 <0>        -0.1634
     15 S1         -4.1103   -8.9463    0.5312 S.3       1 <0>         0.1150
     16 C11        -5.6807   -9.7421    0.6030 C.2       1 <0>         0.2145
     17 N3         -5.8800  -11.0541    0.7684 N.2       1 <0>        -0.5116
     18 C12        -7.1719  -11.3082    0.7763 C.2       1 <0>         0.5641
     19 N4         -7.8276  -10.1394    0.6129 N.pl3     1 <0>        -0.5054
     20 N5         -6.8438   -9.1429    0.5086 N.2       1 <0>        -0.3254
     21 N6         -7.7545  -12.5532    0.9256 N.pl3     1 <0>        -0.5528
     22 N7         -6.9496  -13.6883    1.0881 N.2       1 <0>        -0.1676
     23 C13        -7.4968  -14.8574    1.2283 C.2       1 <0>         0.0993
     24 C14        -6.6501  -16.0515    1.3992 C.ar      1 <0>        -0.0511
     25 C15        -7.2350  -17.3115    1.5445 C.ar      1 <0>        -0.0843
     26 C16        -6.4338  -18.4281    1.7041 C.ar      1 <0>         0.0844
     27 C17        -5.0513  -18.2985    1.7199 C.ar      1 <0>        -0.1473
     28 C18        -4.4654  -17.0548    1.5771 C.ar      1 <0>        -0.1768
     29 C19        -5.2543  -15.9291    1.4108 C.ar      1 <0>         0.1328
     30 O3         -4.6764  -14.7076    1.2650 O.3       1 <0>        -0.2735
     31 C20        -3.2484  -14.6588    1.2867 C.3       1 <0>         0.0246
     32 O4         -7.0016  -19.6555    1.8461 O.3       1 <0>        -0.3172
     33 C21        -6.1159  -20.7654    2.0068 C.3       1 <0>         0.0272
     34 H1         -2.3698    0.6883    3.7578 H         1 <0>         0.0972
     35 H2         -0.6617    0.8289    3.2770 H         1 <0>         0.0928
     36 H3         -1.9432    1.4203    2.1923 H         1 <0>         0.0923
     37 H4         -0.4172   -0.2855    0.8089 H         1 <0>         0.4136
     38 H5          1.1149   -2.2141    0.1446 H         1 <0>         0.1276
     39 H6          1.1249   -4.4780   -0.8169 H         1 <0>         0.1325
     40 H7         -0.9425   -5.8107   -0.8591 H         1 <0>         0.1425
     41 H8         -3.0465   -2.6109    1.0420 H         1 <0>         0.1427
     42 H9         -4.1576   -4.6167   -0.0771 H         1 <0>         0.4146
     43 H10        -5.1142   -6.8470    1.1493 H         1 <0>         0.1264
     44 H11        -5.0835   -7.0670   -0.6168 H         1 <0>         0.1261
     45 H12        -8.7205  -12.6406    0.9179 H         1 <0>         0.3969
     46 H13        -8.5723  -14.9547    1.2197 H         1 <0>         0.1239
     47 H14        -8.3101  -17.4138    1.5327 H         1 <0>         0.1432
     48 H15        -4.4309  -19.1736    1.8448 H         1 <0>         0.1332
     49 H16        -3.3895  -16.9615    1.5908 H         1 <0>         0.1363
     50 H17        -2.8863  -15.0421    2.2407 H         1 <0>         0.0519
     51 H18        -2.8516  -15.2694    0.4756 H         1 <0>         0.0519
     52 H19        -2.9182  -13.6278    1.1605 H         1 <0>         0.1054
     53 H20        -5.4674  -20.8419    1.1341 H         1 <0>         0.0552
     54 H21        -5.5080  -20.6188    2.8995 H         1 <0>         0.0552
     55 H22        -6.6969  -21.6820    2.1093 H         1 <0>         0.1009
     56 H23        -8.7886  -10.0126    0.5777 H         1 <0>         0.4381
@<TRIPOS>BOND
     1    1    2 1
     2    1   34 1
     3    1   35 1
     4    1   36 1
     5    2    3 2
     6    2    4 am
     7    4    5 1
     8    4   37 1
     9    5   10 ar
    10    5    6 ar
    11    6    7 ar
    12    6   38 1
    13    7    8 ar
    14    7   39 1
    15    8    9 ar
    16    8   40 1
    17    9   10 ar
    18    9   11 1
    19   10   41 1
    20   11   12 am
    21   11   42 1
    22   12   13 2
    23   12   14 1
    24   14   15 1
    25   14   43 1
    26   14   44 1
    27   15   16 1
    28   16   20 2
    29   16   17 1
    30   17   18 2
    31   18   19 1
    32   18   21 1
    33   19   20 1
    34   19   56 1
    35   21   22 1
    36   21   45 1
    37   22   23 2
    38   23   24 1
    39   23   46 1
    40   24   29 ar
    41   24   25 ar
    42   25   26 ar
    43   25   47 1
    44   26   27 ar
    45   26   32 1
    46   27   28 ar
    47   27   48 1
    48   28   29 ar
    49   28   49 1
    50   29   30 1
    51   30   31 1
    52   31   50 1
    53   31   51 1
    54   31   52 1
    55   32   33 1
    56   33   53 1
    57   33   54 1
    58   33   55 1
@<TRIPOS>MOLECULE
ZINC06147685
   56    58     0     0     0
SMALL
USER_CHARGES

@<TRIPOS>ATOM
      1 C1         -0.2342    1.6707   -0.0296 C.3       1 <0>        -0.1537
      2 C2         -0.1898    0.1413   -0.0259 C.3       1 <0>        -0.1251
      3 C3          0.5431   -0.3507   -1.2755 C.3       1 <0>        -0.1273
      4 C4          0.5875   -1.8800   -1.2718 C.3       1 <0>         0.1123
      5 N1          1.2893   -2.3511   -2.4684 N.pl3     1 <0>        -1.1172
      6 S1          1.8157   -3.9188   -2.5563 S.o2      1 <0>         2.6999
      7 O1          2.4243   -4.0719   -3.8312 O.2       1 <0>        -0.9589
      8 O2          2.5091   -4.1829   -1.3444 O.2       1 <0>        -0.9509
      9 C5          0.3864   -4.9492   -2.5535 C.ar      1 <0>        -0.6651
     10 C6         -0.1349   -5.4010   -1.3503 C.ar      1 <0>        -0.0403
     11 C7         -1.2512   -6.2068   -1.3310 C.ar      1 <0>        -0.0821
     12 C8         -1.8642   -6.5721   -2.5322 C.ar      1 <0>         0.1110
     13 C9         -1.3323   -6.1113   -3.7478 C.ar      1 <0>         0.0276
     14 C10        -0.2103   -5.2966   -3.7481 C.ar      1 <0>         0.0099
     15 N2         -2.1420   -6.6309   -4.7447 N.pl3     1 <0>        -0.5786
     16 H1         -2.0379   -6.4952   -5.6995 H         1 <0>         0.4311
     17 C11        -3.1142   -7.3703   -4.1323 C.2       1 <0>         0.2776
     18 N3         -2.9484   -7.3339   -2.8328 N.2       1 <0>        -0.4947
     19 S2         -4.3993   -8.2417   -4.9652 S.3       1 <0>         0.0395
     20 C12        -5.3481   -9.0114   -3.6243 C.3       1 <0>        -0.1351
     21 C13        -6.4936   -9.7984   -4.2071 C.2       1 <0>         0.4626
     22 O3         -6.6543   -9.8364   -5.4104 O.2       1 <0>        -0.4995
     23 C14        -7.3795  -10.4912   -3.3547 C.2       1 <0>        -0.4515
     24 C15        -8.5235  -11.1310   -3.8626 C.2       1 <0>         0.5635
     25 N4         -9.3508  -11.7894   -2.9982 N.am      1 <0>        -0.5437
     26 C16        -9.0913  -11.8346   -1.6821 C.2       1 <0>         0.7122
     27 O4         -9.8588  -12.4337   -0.9544 O.2       1 <0>        -0.5224
     28 N5         -8.0148  -11.2428   -1.1398 N.am      1 <0>        -0.5580
     29 C17        -7.1326  -10.5723   -1.9092 C.2       1 <0>         0.5775
     30 O5         -6.1551  -10.0414   -1.4152 O.2       1 <0>        -0.4947
     31 C18        -7.7922  -11.3316    0.3055 C.3       1 <0>         0.0778
     32 C19       -10.5456  -12.4593   -3.5177 C.3       1 <0>         0.0624
     33 N6         -8.8022  -11.0945   -5.1938 N.pl3     1 <0>        -0.7898
     34 H2          0.7825    2.0636   -0.0329 H         1 <0>         0.0552
     35 H3         -0.7603    2.0167   -0.9192 H         1 <0>         0.0540
     36 H4         -0.7563    2.0211    0.8607 H         1 <0>         0.0562
     37 H5          0.3364   -0.2048    0.8638 H         1 <0>         0.0672
     38 H6         -1.2064   -0.2517   -0.0226 H         1 <0>         0.0652
     39 H7          0.0170   -0.0046   -2.1652 H         1 <0>         0.0701
     40 H8          1.5598    0.0423   -1.2788 H         1 <0>         0.0730
     41 H9          1.1137   -2.2261   -0.3822 H         1 <0>         0.0829
     42 H10        -0.4292   -2.2730   -1.2685 H         1 <0>         0.0673
     43 H11         1.4456   -1.7448   -3.2093 H         1 <0>         0.4192
     44 H12         0.3385   -5.1189   -0.4215 H         1 <0>         0.1479
     45 H13        -1.6514   -6.5557   -0.3905 H         1 <0>         0.1418
     46 H14         0.1978   -4.9379   -4.6814 H         1 <0>         0.1429
     47 H15        -4.6997   -9.6793   -3.0573 H         1 <0>         0.1396
     48 H16        -5.7382   -8.2367   -2.9642 H         1 <0>         0.1326
     49 H17        -8.5956  -11.9098    0.7620 H         1 <0>         0.1018
     50 H18        -6.8377  -11.8221    0.4966 H         1 <0>         0.0833
     51 H19        -7.7776  -10.3292    0.7332 H         1 <0>         0.0834
     52 H20       -10.2991  -13.4873   -3.7835 H         1 <0>         0.0894
     53 H21       -11.3237  -12.4580   -2.7545 H         1 <0>         0.1119
     54 H22       -10.9028  -11.9311   -4.4018 H         1 <0>         0.0884
     55 H23        -8.1708  -10.6925   -5.8107 H         1 <0>         0.4418
     56 H24        -9.6324  -11.4705   -5.5260 H         1 <0>         0.4081
@<TRIPOS>BOND
     1    1    2 1
     2    1   34 1
     3    1   35 1
     4    1   36 1
     5    2    3 1
     6    2   37 1
     7    2   38 1
     8    3    4 1
     9    3   39 1
    10    3   40 1
    11    4    5 1
    12    4   41 1
    13    4   42 1
    14    5    6 1
    15    5   43 1
    16    6    7 2
    17    6    8 2
    18    6    9 1
    19    9   14 ar
    20    9   10 ar
    21   10   11 ar
    22   10   44 1
    23   11   12 ar
    24   11   45 1
    25   12   18 1
    26   12   13 ar
    27   13   14 ar
    28   13   15 1
    29   14   46 1
    30   15   16 1
    31   15   17 1
    32   17   18 2
    33   17   19 1
    34   19   20 1
    35   20   21 1
    36   20   47 1
    37   20   48 1
    38   21   22 2
    39   21   23 1
    40   23   29 1
    41   23   24 2
    42   24   25 1
    43   24   33 1
    44   25   26 am
    45   25   32 1
    46   26   27 2
    47   26   28 am
    48   28   29 am
    49   28   31 1
    50   29   30 2
    51   31   49 1
    52   31   50 1
    53   31   51 1
    54   32   52 1
    55   32   53 1
    56   32   54 1
    57   33   55 1
    58   33   56 1
@<TRIPOS>MOLECULE
ZINC22065512
   50    50     0     0     0
SMALL
USER_CHARGES
(2S,3S,4S,5S)-2-(hydroxymethyl)-1-[6-(2,2,2-trifluoroethoxy)hexyl]piperidine-3,4,5-triol
@<TRIPOS>ATOM
      1 C1          5.8506    8.1217   -1.1188 C.3       1 <0>         0.0026
      2 C2          7.2250    8.7945   -1.1006 C.3       1 <0>         0.1067
      3 H1          7.8306    8.4924   -1.9678 H         1 <0>         0.1115
      4 C3          7.0435   10.3139   -1.0478 C.3       1 <0>         0.0845
      5 H2          6.5779   10.6959   -1.9683 H         1 <0>         0.0789
      6 C4          6.2197   10.6789    0.1903 C.3       1 <0>         0.0863
      7 H3          6.7634   10.4454    1.1176 H         1 <0>         0.1007
      8 C5          4.8744    9.9515    0.1346 C.3       1 <0>         0.0054
      9 H4          4.3247   10.2257   -0.7779 H         1 <0>         0.1440
     10 N1          5.1022    8.5016    0.0861 N.4       1 <0>        -0.3919
     11 C6          3.8333    7.7663    0.1714 C.3       1 <0>        -0.0139
     12 C7          4.1197    6.2733    0.3438 C.3       1 <0>        -0.1466
     13 C8          2.7981    5.5074    0.4327 C.3       1 <0>        -0.1166
     14 C9          3.0845    4.0144    0.6051 C.3       1 <0>        -0.1184
     15 C10         1.7630    3.2486    0.6940 C.3       1 <0>        -0.1221
     16 C11         2.0493    1.7555    0.8664 C.3       1 <0>         0.0601
     17 O1          0.8150    1.0402    0.9494 O.3       1 <0>        -0.3733
     18 C12         0.9708   -0.3709    1.1124 C.3       1 <0>         0.0161
     19 C13        -0.4075   -1.0307    1.1890 C.3       1 <0>         0.4617
     20 F1         -1.1142   -0.7727    0.0095 F         1 <0>        -0.1753
     21 F2         -0.2549   -2.4121    1.3486 F         1 <0>        -0.1736
     22 F3         -1.1136   -0.5104    2.2790 F         1 <0>        -0.1753
     23 C14         4.0558   10.2976    1.3799 C.3       1 <0>         0.0581
     24 O2          4.8032    9.9601    2.5502 O.3       1 <0>        -0.6090
     25 O3          5.9982   12.0904    0.2168 O.3       1 <0>        -0.5791
     26 O4          8.3231   10.9455   -0.9732 O.3       1 <0>        -0.5879
     27 O5          7.9532    8.3608    0.0500 O.3       1 <0>        -0.6041
     28 H5          5.9779    7.0293   -1.1421 H         1 <0>         0.1477
     29 H6          5.2962    8.4454   -2.0121 H         1 <0>         0.1403
     30 H7          3.2556    8.1308    1.0336 H         1 <0>         0.1335
     31 H8          3.2550    7.9247   -0.7508 H         1 <0>         0.1270
     32 H9          4.6974    5.9088   -0.5184 H         1 <0>         0.0871
     33 H10         4.6980    6.1150    1.2660 H         1 <0>         0.0899
     34 H11         2.2204    5.8719    1.2949 H         1 <0>         0.0760
     35 H12         2.2198    5.6657   -0.4895 H         1 <0>         0.0761
     36 H13         3.6622    3.6499   -0.2571 H         1 <0>         0.0703
     37 H14         3.6628    3.8561    1.5273 H         1 <0>         0.0710
     38 H15         1.1853    3.6131    1.5562 H         1 <0>         0.0770
     39 H16         1.1847    3.4070   -0.2282 H         1 <0>         0.0770
     40 H17         2.6270    1.3910    0.0042 H         1 <0>         0.0583
     41 H18         2.6276    1.5971    1.7886 H         1 <0>         0.0585
     42 H19         1.5260   -0.7799    0.2554 H         1 <0>         0.0999
     43 H20         1.5265   -0.5738    2.0398 H         1 <0>         0.1000
     44 H21         3.8335   11.3749    1.3848 H         1 <0>         0.0889
     45 H22         3.1142    9.7290    1.3695 H         1 <0>         0.0751
     46 H23         4.3741   10.1383    3.5472 H         1 <0>         0.4466
     47 H24         5.4215   12.5413    1.0379 H         1 <0>         0.4252
     48 H25         8.3932   12.0423   -0.9273 H         1 <0>         0.4376
     49 H26         8.9692    8.7405    0.2333 H         1 <0>         0.4502
     50 H27         5.7125    8.2286    0.9596 H         1 <0>         0.4573
@<TRIPOS>BOND
     1    1   10 1
     2    1    2 1
     3    1   28 1
     4    1   29 1
     5    2    3 1
     6    2    4 1
     7    2   27 1
     8    4    5 1
     9    4    6 1
    10    4   26 1
    11    6    7 1
    12    6    8 1
    13    6   25 1
    14    8    9 1
    15    8   10 1
    16    8   23 1
    17   10   11 1
    18   10   50 1
    19   11   12 1
    20   11   30 1
    21   11   31 1
    22   12   13 1
    23   12   32 1
    24   12   33 1
    25   13   14 1
    26   13   34 1
    27   13   35 1
    28   14   15 1
    29   14   36 1
    30   14   37 1
    31   15   16 1
    32   15   38 1
    33   15   39 1
    34   16   17 1
    35   16   40 1
    36   16   41 1
    37   17   18 1
    38   18   19 1
    39   18   42 1
    40   18   43 1
    41   19   20 1
    42   19   21 1
    43   19   22 1
    44   23   24 1
    45   23   44 1
    46   23   45 1
    47   24   46 1
    48   25   47 1
    49   26   48 1
    50   27   49 1
@<TRIPOS>MOLECULE
ZINC41592775
   52    53     0     0     0
SMALL
USER_CHARGES

@<TRIPOS>ATOM
      1 C1          0.0642    1.6897   -0.7600 C.3       1 <0>        -0.1856
      2 C2         -0.0952    0.2676   -1.3016 C.3       1 <0>        -0.0324
      3 N1          0.7703   -0.6452   -0.5429 N.4       1 <0>        -0.3834
      4 C3          0.2969   -0.7284    0.8452 C.3       1 <0>        -0.0160
      5 C4          1.2512   -1.6059    1.6578 C.3       1 <0>        -0.1886
      6 C5          0.7300   -1.9800   -1.1549 C.3       1 <0>         0.0792
      7 H1          1.3080   -2.6760   -0.5470 H         1 <0>         0.1546
      8 C6          1.3273   -1.9143   -2.5619 C.3       1 <0>         0.0997
      9 N2          2.7007   -1.4100   -2.4863 N.am      1 <0>        -0.7261
     10 C7          3.3937   -1.1701   -3.6171 C.2       1 <0>         0.5208
     11 O1          2.8515   -1.2842   -4.6968 O.2       1 <0>        -0.4849
     12 C8          4.8290   -0.7637   -3.5414 C.2       1 <0>         0.5074
     13 O2          5.3967   -0.7382   -2.4691 O.2       1 <0>        -0.4914
     14 N3          5.4937   -0.4253   -4.6640 N.am      1 <0>        -0.6357
     15 C9          6.8555   -0.1388   -4.6074 C.ar      1 <0>         0.1558
     16 C10         7.6732   -0.8259   -3.7151 C.ar      1 <0>        -0.1240
     17 C11         9.0195   -0.5450   -3.6567 C.ar      1 <0>        -0.0368
     18 C12         9.5652    0.4309   -4.4951 C.ar      1 <0>        -0.1421
     19 C13         8.7416    1.1188   -5.3904 C.ar      1 <0>        -0.0636
     20 C14         7.3968    0.8300   -5.4473 C.ar      1 <0>        -0.1409
     21 C15        11.0084    0.7349   -4.4348 C.2       1 <0>         0.5615
     22 O3         11.7237    0.1359   -3.6551 O.2       1 <0>        -0.5345
     23 N4         11.5331    1.6763   -5.2439 N.am      1 <0>        -0.8490
     24 C16        -0.6988   -2.4519   -1.2373 C.2       1 <0>        -0.1669
     25 C17        -1.1403   -3.4940   -0.4437 C.2       1 <0>        -0.1607
     26 C18        -2.4316   -3.8941   -0.5424 C.2       1 <0>        -0.1487
     27 S1         -3.0683   -2.7832   -1.7865 S.3       1 <0>         0.1388
     28 C19        -1.5718   -1.8571   -2.0867 C.2       1 <0>        -0.1790
     29 H2         -0.2187    1.7114    0.2924 H         1 <0>         0.0825
     30 H3          1.1028    2.0036   -0.8636 H         1 <0>         0.0799
     31 H4         -0.5780    2.3670   -1.3229 H         1 <0>         0.1082
     32 H5         -1.1338   -0.0463   -1.1980 H         1 <0>         0.1411
     33 H6          0.1877    0.2459   -2.3540 H         1 <0>         0.1289
     34 H7          0.2645    0.2712    1.2786 H         1 <0>         0.1349
     35 H8         -0.7018   -1.1646    0.8629 H         1 <0>         0.1325
     36 H9          1.2124   -2.6287    1.2830 H         1 <0>         0.0791
     37 H10         2.2671   -1.2225    1.5628 H         1 <0>         0.0813
     38 H11         0.9539   -1.5916    2.7064 H         1 <0>         0.1093
     39 H12         1.3301   -2.9113   -3.0025 H         1 <0>         0.1221
     40 H13         0.7283   -1.2456   -3.1801 H         1 <0>         0.1037
     41 H14         3.1114   -1.2489   -1.6224 H         1 <0>         0.4102
     42 H15         5.0236   -0.3813   -5.5113 H         1 <0>         0.4271
     43 H16         7.2509   -1.5800   -3.0674 H         1 <0>         0.1409
     44 H17         9.6534   -1.0781   -2.9636 H         1 <0>         0.1456
     45 H18         9.1603    1.8738   -6.0393 H         1 <0>         0.1370
     46 H19         6.7605    1.3583   -6.1419 H         1 <0>         0.1383
     47 H20        10.9624    2.1542   -5.8659 H         1 <0>         0.4010
     48 H21        12.4815    1.8761   -5.2043 H         1 <0>         0.4093
     49 H22        -0.4662   -3.9825    0.2444 H         1 <0>         0.1455
     50 H23        -2.9426   -4.6809   -0.0075 H         1 <0>         0.1994
     51 H24        -1.4050   -1.0367   -2.7689 H         1 <0>         0.1964
     52 H25         1.7177   -0.2982   -0.5550 H         1 <0>         0.4182
@<TRIPOS>BOND
     1    1    2 1
     2    1   29 1
     3    1   30 1
     4    1   31 1
     5    2    3 1
     6    2   32 1
     7    2   33 1
     8    3    4 1
     9    3    6 1
    10    3   52 1
    11    4    5 1
    12    4   34 1
    13    4   35 1
    14    5   36 1
    15    5   37 1
    16    5   38 1
    17    6    7 1
    18    6    8 1
    19    6   24 1
    20    8    9 1
    21    8   39 1
    22    8   40 1
    23    9   10 am
    24    9   41 1
    25   10   11 2
    26   10   12 1
    27   12   13 2
    28   12   14 am
    29   14   15 1
    30   14   42 1
    31   15   20 ar
    32   15   16 ar
    33   16   17 ar
    34   16   43 1
    35   17   18 ar
    36   17   44 1
    37   18   19 ar
    38   18   21 1
    39   19   20 ar
    40   19   45 1
    41   20   46 1
    42   21   22 2
    43   21   23 am
    44   23   47 1
    45   23   48 1
    46   24   28 2
    47   24   25 1
    48   25   26 2
    49   25   49 1
    50   26   27 1
    51   26   50 1
    52   27   28 1
    53   28   51 1
@<TRIPOS>MOLECULE
ZINC47964337
   52    53     0     0     0
SMALL
USER_CHARGES

@<TRIPOS>ATOM
      1 C1          0.8333    1.3071    0.5563 C.3       1 <0>        -0.1486
      2 C2          0.7189   -0.2126    0.4205 C.3       1 <0>        -0.0992
      3 C3          1.2351   -0.6365   -0.9303 C.ar      1 <0>        -0.0436
      4 C4          0.3743   -0.7017   -2.0099 C.ar      1 <0>        -0.1017
      5 C5          0.8478   -1.0906   -3.2490 C.ar      1 <0>        -0.0838
      6 C6          2.1824   -1.4138   -3.4086 C.ar      1 <0>        -0.1557
      7 C7          3.0434   -1.3477   -2.3292 C.ar      1 <0>        -0.1148
      8 C8          2.5707   -0.9547   -1.0911 C.ar      1 <0>        -0.1024
      9 C9          2.6984   -1.8387   -4.7593 C.3       1 <0>         0.0678
     10 H1          2.0091   -1.5025   -5.5338 H         1 <0>         0.1522
     11 C10         2.8124   -3.3637   -4.8050 C.3       1 <0>         0.1025
     12 N1          1.4771   -3.9567   -4.6975 N.am      1 <0>        -0.6972
     13 C11         1.3390   -5.2944   -4.6078 C.2       1 <0>         0.5267
     14 O1          2.3209   -6.0077   -4.6161 O.2       1 <0>        -0.4871
     15 C12        -0.0218   -5.8986   -4.4982 C.2       1 <0>         0.4995
     16 O2         -1.0038   -5.1852   -4.4899 O.2       1 <0>        -0.4801
     17 N2         -0.1599   -7.2363   -4.4086 N.am      1 <0>        -0.5764
     18 C13        -1.4214   -7.7965   -4.3070 C.2       1 <0>         0.0587
     19 C14        -1.7523   -9.1403   -4.2010 C.2       1 <0>        -0.2476
     20 C15        -3.1591   -9.4537   -4.1084 C.2       1 <0>        -0.1046
     21 C16        -3.9980   -8.4007   -4.1353 C.2       1 <0>        -0.2371
     22 S1         -2.9013   -7.0066   -4.2763 S.3       1 <0>         0.2896
     23 C17        -0.7262  -10.1881   -4.1845 C.2       1 <0>         0.5875
     24 O3          0.4507   -9.8887   -4.2649 O.2       1 <0>        -0.5608
     25 N3         -1.0866  -11.4826   -4.0803 N.am      1 <0>        -0.8443
     26 N4          4.0210   -1.2417   -4.9881 N.4       1 <0>        -0.3807
     27 C18         4.5163   -1.6415   -6.3120 C.3       1 <0>        -0.0566
     28 C19         3.9148    0.2222   -4.9266 C.3       1 <0>        -0.0485
     29 H2          1.8777    1.6031    0.4573 H         1 <0>         0.0565
     30 H3          0.2440    1.7871   -0.2249 H         1 <0>         0.0579
     31 H4          0.4599    1.6137    1.5334 H         1 <0>         0.0676
     32 H5          1.3082   -0.6926    1.2018 H         1 <0>         0.0805
     33 H6         -0.3255   -0.5086    0.5196 H         1 <0>         0.0818
     34 H7         -0.6684   -0.4492   -1.8852 H         1 <0>         0.1382
     35 H8          0.1751   -1.1422   -4.0924 H         1 <0>         0.1343
     36 H9          4.0860   -1.6006   -2.4539 H         1 <0>         0.1198
     37 H10         3.2442   -0.8995   -0.2486 H         1 <0>         0.1357
     38 H11         3.2693   -3.6658   -5.7474 H         1 <0>         0.1001
     39 H12         3.4303   -3.7069   -3.9752 H         1 <0>         0.1009
     40 H13         0.6924   -3.3866   -4.6908 H         1 <0>         0.4197
     41 H14         0.6249   -7.8064   -4.4152 H         1 <0>         0.4453
     42 H15        -3.5161  -10.4694   -4.0232 H         1 <0>         0.1488
     43 H16        -5.0766   -8.4017   -4.0801 H         1 <0>         0.1952
     44 H17        -2.0246  -11.7213   -4.0162 H         1 <0>         0.4035
     45 H18        -0.4079  -12.1756   -4.0693 H         1 <0>         0.4079
     46 H19         3.7666   -1.4050   -7.0671 H         1 <0>         0.1270
     47 H20         5.4375   -1.1025   -6.5333 H         1 <0>         0.1323
     48 H21         4.7124   -2.7137   -6.3180 H         1 <0>         0.1273
     49 H22         3.5472    0.5189   -3.9443 H         1 <0>         0.1262
     50 H23         4.8961    0.6651   -5.0964 H         1 <0>         0.1292
     51 H24         3.2221    0.5687   -5.6936 H         1 <0>         0.1251
     52 H25         4.6622   -1.5625   -4.2781 H         1 <0>         0.4256
@<TRIPOS>BOND
     1    1    2 1
     2    1   29 1
     3    1   30 1
     4    1   31 1
     5    2    3 1
     6    2   32 1
     7    2   33 1
     8    3    8 ar
     9    3    4 ar
    10    4    5 ar
    11    4   34 1
    12    5    6 ar
    13    5   35 1
    14    6    7 ar
    15    6    9 1
    16    7    8 ar
    17    7   36 1
    18    8   37 1
    19    9   10 1
    20    9   11 1
    21    9   26 1
    22   11   12 1
    23   11   38 1
    24   11   39 1
    25   12   13 am
    26   12   40 1
    27   13   14 2
    28   13   15 1
    29   15   16 2
    30   15   17 am
    31   17   18 1
    32   17   41 1
    33   18   22 1
    34   18   19 2
    35   19   20 1
    36   19   23 1
    37   20   21 2
    38   20   42 1
    39   21   22 1
    40   21   43 1
    41   23   24 2
    42   23   25 am
    43   25   44 1
    44   25   45 1
    45   26   27 1
    46   26   28 1
    47   26   52 1
    48   27   46 1
    49   27   47 1
    50   27   48 1
    51   28   49 1
    52   28   50 1
    53   28   51 1
@<TRIPOS>MOLECULE
ZINC64885843
   55    56     0     0     0
SMALL
USER_CHARGES

@<TRIPOS>ATOM
      1 C1         -0.0187    1.5258    0.0104 C.3       1 <0>        -0.1517
      2 C2          0.0021   -0.0041    0.0020 C.3       1 <0>        -0.1116
      3 C3         -1.4333   -0.5336    0.0129 C.3       1 <0>        -0.0708
      4 C4         -1.4129   -2.0405    0.0046 C.2       1 <0>         0.0047
      5 C5         -1.4066   -2.8750   -1.1364 C.2       1 <0>        -0.2043
      6 C6         -1.3863   -4.1814   -0.6832 C.2       1 <0>         0.1271
      7 N1         -1.3803   -4.1639    0.6589 N.pl3     1 <0>        -0.5294
      8 H1         -1.3662   -4.9473    1.2308 H         1 <0>         0.4164
      9 C7         -1.3909   -2.8571    1.0960 C.2       1 <0>        -0.0623
     10 C8         -1.3835   -2.4193    2.4973 C.2       1 <0>         0.5982
     11 O1         -1.3974   -1.2321    2.7638 O.2       1 <0>        -0.4972
     12 N2         -1.3612   -3.3322    3.4885 N.am      1 <0>        -0.5377
     13 N3         -1.3540   -2.9144    4.8257 N.am      1 <0>        -0.5217
     14 C9         -1.3317   -3.8273    5.8169 C.2       1 <0>         0.7158
     15 O2         -1.3255   -3.4647    6.9774 O.2       1 <0>        -0.5574
     16 N4         -1.3163   -5.1423    5.5217 N.am      1 <0>        -0.7491
     17 C10        -1.2921   -6.1347    6.5991 C.3       1 <0>         0.1383
     18 C11        -1.2783   -7.5411    5.9968 C.3       1 <0>        -0.1555
     19 C12        -1.2530   -8.5775    7.1220 C.3       1 <0>         0.0953
     20 N5         -1.2399   -9.9242    6.5454 N.pl3     1 <0>        -0.4090
     21 C13        -2.3343  -10.6837    6.2308 C.2       1 <0>         0.0255
     22 C14        -1.8716  -11.8444    5.7285 C.2       1 <0>         0.0049
     23 N6         -0.5313  -11.7949    5.7361 N.pl3     1 <0>        -0.4758
     24 C15        -0.1458  -10.6456    6.2194 C.cat     1 <0>         0.2889
     25 C16        -1.3737   -5.4148   -1.5489 C.3       1 <0>        -0.1017
     26 C17        -1.4193   -2.4362   -2.5419 C.2       1 <0>         0.5420
     27 O3         -0.3721   -2.2405   -3.1268 O.2       1 <0>        -0.4880
     28 O4         -2.5920   -2.2516   -3.1796 O.3       1 <0>        -0.3461
     29 C18        -2.5295   -1.8253   -4.5421 C.3       1 <0>         0.0301
     30 H2          1.0039    1.9031    0.0027 H         1 <0>         0.0563
     31 H3         -0.5459    1.8868   -0.8726 H         1 <0>         0.0540
     32 H4         -0.5289    1.8773    0.9072 H         1 <0>         0.0577
     33 H5          0.5123   -0.3556   -0.8948 H         1 <0>         0.0622
     34 H6          0.5293   -0.3651    0.8851 H         1 <0>         0.0628
     35 H7         -1.9435   -0.1821    0.9097 H         1 <0>         0.0975
     36 H8         -1.9605   -0.1726   -0.8702 H         1 <0>         0.0734
     37 H9         -1.3501   -4.2786    3.2760 H         1 <0>         0.4085
     38 H10        -1.3651   -1.9680    5.0382 H         1 <0>         0.4508
     39 H11        -1.3212   -5.4316    4.5958 H         1 <0>         0.3898
     40 H12        -0.3981   -5.9905    7.2058 H         1 <0>         0.0823
     41 H13        -2.1778   -6.0152    7.2231 H         1 <0>         0.0826
     42 H14        -2.1723   -7.6853    5.3901 H         1 <0>         0.0891
     43 H15        -0.3926   -7.6605    5.3729 H         1 <0>         0.0869
     44 H16        -0.3590   -8.4333    7.7288 H         1 <0>         0.1286
     45 H17        -2.1387   -8.4581    7.7460 H         1 <0>         0.1313
     46 H18        -3.3698  -10.4058    6.3608 H         1 <0>         0.2237
     47 H19        -2.4742  -12.6704    5.3805 H         1 <0>         0.2244
     48 H20         0.8785  -10.3256    6.3410 H         1 <0>         0.2604
     49 H21        -0.3431   -5.6980   -1.7628 H         1 <0>         0.0904
     50 H22        -1.8737   -6.2305   -1.0266 H         1 <0>         0.0788
     51 H23        -1.8951   -5.2081   -2.4835 H         1 <0>         0.0916
     52 H24        -2.0109   -0.8684   -4.5999 H         1 <0>         0.0641
     53 H25        -1.9897   -2.5673   -5.1305 H         1 <0>         0.0628
     54 H26        -3.5402   -1.7152   -4.9351 H         1 <0>         0.1059
     55 H27         0.0584  -12.5006    5.4276 H         1 <0>         0.4662
@<TRIPOS>BOND
     1    1    2 1
     2    1   30 1
     3    1   31 1
     4    1   32 1
     5    2    3 1
     6    2   33 1
     7    2   34 1
     8    3    4 1
     9    3   35 1
    10    3   36 1
    11    4    9 2
    12    4    5 1
    13    5    6 2
    14    5   26 1
    15    6    7 1
    16    6   25 1
    17    7    8 1
    18    7    9 1
    19    9   10 1
    20   10   11 2
    21   10   12 am
    22   12   13 1
    23   12   37 1
    24   13   14 am
    25   13   38 1
    26   14   15 2
    27   14   16 am
    28   16   17 1
    29   16   39 1
    30   17   18 1
    31   17   40 1
    32   17   41 1
    33   18   19 1
    34   18   42 1
    35   18   43 1
    36   19   20 1
    37   19   44 1
    38   19   45 1
    39   20   24 1
    40   20   21 1
    41   21   22 2
    42   21   46 1
    43   22   23 1
    44   22   47 1
    45   23   24 2
    46   23   55 1
    47   24   48 1
    48   25   49 1
    49   25   50 1
    50   25   51 1
    51   26   27 2
    52   26   28 1
    53   28   29 1
    54   29   52 1
    55   29   53 1
    56   29   54 1
@<TRIPOS>MOLECULE
ZINC67496268
   54    55     0     0     0
SMALL
USER_CHARGES

@<TRIPOS>ATOM
      1 C1          0.0100    1.9387   -0.0308 C.3       1 <0>        -0.1803
      2 C2         -0.0271    0.4150   -0.1643 C.3       1 <0>         0.1011
      3 N1         -1.4198   -0.0378   -0.2060 N.pl3     1 <0>        -0.5776
      4 C3         -2.1142   -0.1535   -1.4907 C.3       1 <0>         0.0842
      5 C4         -1.9083   -1.5598   -2.0570 C.3       1 <0>        -0.1816
      6 C5         -2.0822   -0.3576    0.9734 C.ar      1 <0>         0.4484
      7 C6         -1.4185   -0.2401    2.1907 C.ar      1 <0>        -0.1954
      8 C7         -2.0896   -0.5617    3.3564 C.ar      1 <0>         0.0514
      9 C8         -3.4071   -0.9917    3.2656 C.ar      1 <0>        -0.1650
     10 C9         -4.0039   -1.0850    2.0246 C.ar      1 <0>         0.1689
     11 N2         -3.3407   -0.7663    0.9290 N.ar      1 <0>        -0.5066
     12 C10        -4.1771   -1.3533    4.5096 C.3       1 <0>         0.1645
     13 N3         -4.8607   -0.1639    5.0237 N.am      1 <0>        -0.7079
     14 C11        -5.6152   -0.2489    6.1373 C.2       1 <0>         0.5172
     15 O1         -5.7282   -1.3107    6.7141 O.2       1 <0>        -0.4982
     16 C12        -6.3121    0.9636    6.6614 C.2       1 <0>         0.5085
     17 O2         -6.1991    2.0255    6.0845 O.2       1 <0>        -0.4987
     18 N4         -7.0666    0.8786    7.7750 N.am      1 <0>        -0.6366
     19 C13        -7.6343    2.0316    8.3241 C.ar      1 <0>         0.1129
     20 C14        -8.0843    3.0497    7.4908 C.ar      1 <0>        -0.0833
     21 C15        -8.6460    4.1919    8.0290 C.ar      1 <0>        -0.1124
     22 C16        -8.7640    4.3299    9.3974 C.ar      1 <0>        -0.0193
     23 C17        -8.3153    3.3137   10.2427 C.ar      1 <0>        -0.1262
     24 C18        -7.7540    2.1581    9.6997 C.ar      1 <0>        -0.0959
     25 C19        -8.4401    3.4594   11.7088 C.2       1 <0>         0.5634
     26 O3         -8.8633    4.4956   12.1828 O.2       1 <0>        -0.5249
     27 N5         -8.0847    2.4432   12.5197 N.am      1 <0>        -0.8502
     28 C20        -9.3768    5.5779    9.9787 C.3       1 <0>        -0.1337
     29 H1          1.0461    2.2756    0.0003 H         1 <0>         0.0889
     30 H2         -0.4936    2.3907   -0.8853 H         1 <0>         0.0681
     31 H3         -0.4962    2.2354    0.8879 H         1 <0>         0.0639
     32 H4          0.4791    0.1184   -1.0829 H         1 <0>         0.1080
     33 H5          0.4765   -0.0370    0.6902 H         1 <0>         0.0980
     34 H6         -3.1793    0.0274   -1.3456 H         1 <0>         0.0801
     35 H7         -1.7126    0.5815   -2.1883 H         1 <0>         0.1162
     36 H8         -0.8432   -1.7407   -2.2021 H         1 <0>         0.0764
     37 H9         -2.3099   -2.2948   -1.3594 H         1 <0>         0.0574
     38 H10        -2.4250   -1.6459   -3.0128 H         1 <0>         0.0905
     39 H11        -0.3931    0.0973    2.2247 H         1 <0>         0.1826
     40 H12        -1.6001   -0.4806    4.3156 H         1 <0>         0.1766
     41 H13        -5.0281   -1.4193    1.9495 H         1 <0>         0.2080
     42 H14        -4.9133   -2.1208    4.2709 H         1 <0>         0.1011
     43 H15        -3.4892   -1.7322    5.2654 H         1 <0>         0.1053
     44 H16        -4.7704    0.6847    4.5627 H         1 <0>         0.4158
     45 H17        -7.2155    0.0172    8.1953 H         1 <0>         0.4253
     46 H18        -7.9944    2.9476    6.4194 H         1 <0>         0.1435
     47 H19        -8.9934    4.9795    7.3768 H         1 <0>         0.1385
     48 H20        -7.4095    1.3665   10.3486 H         1 <0>         0.1335
     49 H21        -7.7470    1.6163   12.1415 H         1 <0>         0.3992
     50 H22        -8.1666    2.5387   13.4815 H         1 <0>         0.4089
     51 H23       -10.4270    5.3951   10.2059 H         1 <0>         0.0780
     52 H24        -8.8492    5.8498   10.8930 H         1 <0>         0.1055
     53 H25        -9.2973    6.3915    9.2577 H         1 <0>         0.0625
     54 H26        -3.7851   -0.8370    0.0696 H         1 <0>         0.4416
@<TRIPOS>BOND
     1    1    2 1
     2    1   29 1
     3    1   30 1
     4    1   31 1
     5    2    3 1
     6    2   32 1
     7    2   33 1
     8    3    4 1
     9    3    6 1
    10    4    5 1
    11    4   34 1
    12    4   35 1
    13    5   36 1
    14    5   37 1
    15    5   38 1
    16    6   11 ar
    17    6    7 ar
    18    7    8 ar
    19    7   39 1
    20    8    9 ar
    21    8   40 1
    22    9   10 ar
    23    9   12 1
    24   10   11 ar
    25   10   41 1
    26   11   54 1
    27   12   13 1
    28   12   42 1
    29   12   43 1
    30   13   14 am
    31   13   44 1
    32   14   15 2
    33   14   16 1
    34   16   17 2
    35   16   18 am
    36   18   19 1
    37   18   45 1
    38   19   24 ar
    39   19   20 ar
    40   20   21 ar
    41   20   46 1
    42   21   22 ar
    43   21   47 1
    44   22   23 ar
    45   22   28 1
    46   23   24 ar
    47   23   25 1
    48   24   48 1
    49   25   26 2
    50   25   27 am
    51   27   49 1
    52   27   50 1
    53   28   51 1
    54   28   52 1
    55   28   53 1
@<TRIPOS>MOLECULE
ZINC15775165
   42    43     0     0     0
SMALL
USER_CHARGES
(1R,2S,3S,4S)-1-[5-(p-tolylamino)-1,3,4-thiadiazol-2-yl]pentane-1,2,3,4,5-pentol
@<TRIPOS>ATOM
      1 C1         -3.2044    6.7966   -0.3559 C.3       1 <0>        -0.1149
      2 C2         -2.0119    5.8802   -0.2595 C.ar      1 <0>        -0.0999
      3 C3         -0.8456    6.3260    0.3349 C.ar      1 <0>        -0.0949
      4 C4          0.2489    5.4887    0.4253 C.ar      1 <0>        -0.1416
      5 C5          0.1774    4.1974   -0.0821 C.ar      1 <0>         0.1446
      6 C6         -0.9938    3.7549   -0.6841 C.ar      1 <0>        -0.1250
      7 C7         -2.0864    4.5956   -0.7660 C.ar      1 <0>        -0.0919
      8 N1          1.2830    3.3474    0.0078 N.pl3     1 <0>        -0.5984
      9 C8          1.1030    1.9715   -0.0029 C.2       1 <0>         0.3246
     10 N2         -0.0142    1.2566    0.0137 N.2       1 <0>        -0.3357
     11 N3          0.0032   -0.0045   -0.0000 N.2       1 <0>        -0.2188
     12 C9          1.1276   -0.6909   -0.0316 C.2       1 <0>         0.0074
     13 S1          2.3123    0.6515   -0.0430 S.3       1 <0>        -0.0278
     14 C10         1.3522   -2.1809   -0.0515 C.3       1 <0>         0.1876
     15 H1          2.3820   -2.3892   -0.3418 H         1 <0>         0.1353
     16 C11         1.0891   -2.7550    1.3421 C.3       1 <0>         0.0596
     17 H2          1.8261   -2.3616    2.0422 H         1 <0>         0.1117
     18 C12         1.1953   -4.2806    1.2936 C.3       1 <0>         0.0551
     19 H3          0.4583   -4.6740    0.5935 H         1 <0>         0.1137
     20 C13         0.9321   -4.8547    2.6872 C.3       1 <0>         0.0840
     21 H4          1.6691   -4.4613    3.3873 H         1 <0>         0.1049
     22 C14         1.0383   -6.3802    2.6387 C.3       1 <0>         0.0448
     23 O1          0.9082   -6.9090    3.9599 O.3       1 <0>        -0.5655
     24 O2         -0.3790   -4.4818    3.1162 O.3       1 <0>        -0.5276
     25 O3          2.5064   -4.6534    0.8646 O.3       1 <0>        -0.5438
     26 O4         -0.2220   -2.3822    1.7711 O.3       1 <0>        -0.5172
     27 O5          0.4610   -2.7845   -0.9914 O.3       1 <0>        -0.5302
     28 H5         -3.1575    7.3569   -1.2897 H         1 <0>         0.0710
     29 H6         -4.1198    6.2054   -0.3324 H         1 <0>         0.0676
     30 H7         -3.1983    7.4905    0.4848 H         1 <0>         0.0669
     31 H8         -0.7906    7.3299    0.7292 H         1 <0>         0.1293
     32 H9          1.1593    5.8372    0.8903 H         1 <0>         0.1276
     33 H10        -1.0513    2.7531   -1.0835 H         1 <0>         0.1426
     34 H11        -2.9988    4.2506   -1.2296 H         1 <0>         0.1284
     35 H12         2.1762    3.7192    0.0776 H         1 <0>         0.4307
     36 H13         0.2444   -6.7798    2.0076 H         1 <0>         0.0486
     37 H14         2.0070   -6.6641    2.2274 H         1 <0>         0.0628
     38 H15         0.9658   -7.8732    4.0050 H         1 <0>         0.3814
     39 H16        -1.0868   -4.7989    2.5387 H         1 <0>         0.3698
     40 H17         3.2142   -4.3364    1.4421 H         1 <0>         0.3796
     41 H18        -0.9298   -2.6992    1.1936 H         1 <0>         0.3712
     42 H19        -0.4747   -2.6396   -0.7951 H         1 <0>         0.3825
@<TRIPOS>BOND
     1    1    2 1
     2    1   28 1
     3    1   29 1
     4    1   30 1
     5    2    7 ar
     6    2    3 ar
     7    3    4 ar
     8    3   31 1
     9    4    5 ar
    10    4   32 1
    11    5    6 ar
    12    5    8 1
    13    6    7 ar
    14    6   33 1
    15    7   34 1
    16    8    9 1
    17    8   35 1
    18    9   13 1
    19    9   10 2
    20   10   11 1
    21   11   12 2
    22   12   13 1
    23   12   14 1
    24   14   15 1
    25   14   16 1
    26   14   27 1
    27   16   17 1
    28   16   18 1
    29   16   26 1
    30   18   19 1
    31   18   20 1
    32   18   25 1
    33   20   21 1
    34   20   22 1
    35   20   24 1
    36   22   23 1
    37   22   36 1
    38   22   37 1
    39   23   38 1
    40   24   39 1
    41   25   40 1
    42   26   41 1
    43   27   42 1
@<TRIPOS>MOLECULE
ZINC35465311
   48    49     0     0     0
SMALL
USER_CHARGES

@<TRIPOS>ATOM
      1 C1          0.4250    1.4048   -0.4201 C.3       1 <0>        -0.1475
      2 C2          0.2321   -0.1005   -0.2258 C.3       1 <0>         0.1118
      3 H1         -0.8319   -0.3360   -0.2455 H         1 <0>         0.0659
      4 C3          0.8227   -0.5206    1.1216 C.3       1 <0>         0.1128
      5 H2          1.8767   -0.2454    1.1580 H         1 <0>         0.0757
      6 C4          0.0827    0.1770    2.2338 C.ar      1 <0>        -0.1368
      7 C5         -1.0866   -0.3671    2.7322 C.ar      1 <0>        -0.0419
      8 C6         -1.7671    0.2706    3.7513 C.ar      1 <0>        -0.1531
      9 C7         -1.2760    1.4577    4.2751 C.ar      1 <0>         0.1315
     10 C8         -0.1022    2.0013    3.7736 C.ar      1 <0>        -0.2071
     11 C9          0.5773    1.3570    2.7579 C.ar      1 <0>        -0.0605
     12 O1         -1.9437    2.0872    5.2774 O.3       1 <0>        -0.3189
     13 C10        -1.3797    3.3051    5.7679 C.3       1 <0>         0.0277
     14 O2          0.6941   -1.9352    1.2779 O.3       1 <0>        -0.3562
     15 C11         1.7707   -2.5409    1.9962 C.3       1 <0>         0.2276
     16 H3          2.7202   -2.2048    1.5796 H         1 <0>         0.0563
     17 C12         1.6713   -4.0639    1.8766 C.3       1 <0>         0.0655
     18 H4          1.7730   -4.3546    0.8310 H         1 <0>         0.0682
     19 C13         2.7927   -4.7071    2.6982 C.3       1 <0>         0.0786
     20 H5          3.7592   -4.4138    2.2883 H         1 <0>         0.0770
     21 C14         2.6855   -4.2297    4.1497 C.3       1 <0>         0.0914
     22 H6          3.5126   -4.6390    4.7298 H         1 <0>         0.0712
     23 C15         2.7458   -2.7003    4.1815 C.3       1 <0>         0.1131
     24 H7          3.7081   -2.3663    3.7937 H         1 <0>         0.0759
     25 O3          1.6952   -2.1664    3.3732 O.3       1 <0>        -0.3567
     26 C16         2.5793   -2.2129    5.6222 C.3       1 <0>         0.0911
     27 O4          2.7515   -0.7951    5.6684 O.3       1 <0>        -0.5660
     28 O5          1.4463   -4.6717    4.7075 O.3       1 <0>        -0.5276
     29 O6          2.6650   -6.1295    2.6503 O.3       1 <0>        -0.5480
     30 O7          0.4040   -4.5001    2.3724 O.3       1 <0>        -0.5212
     31 O8          0.8955   -0.8053   -1.2771 O.3       1 <0>        -0.5621
     32 H8          1.4891    1.6403   -0.4005 H         1 <0>         0.0636
     33 H9          0.0043    1.7041   -1.3801 H         1 <0>         0.0701
     34 H10        -0.0810    1.9424    0.3818 H         1 <0>         0.0774
     35 H11        -1.4686   -1.2912    2.3241 H         1 <0>         0.1282
     36 H12        -2.6808   -0.1544    4.1398 H         1 <0>         0.1281
     37 H13         0.2821    2.9253    4.1797 H         1 <0>         0.1260
     38 H14         1.4934    1.7774    2.3702 H         1 <0>         0.1195
     39 H15        -2.0097    3.7028    6.5635 H         1 <0>         0.0996
     40 H16        -0.3805    3.1116    6.1580 H         1 <0>         0.0553
     41 H17        -1.3187    4.0300    4.9562 H         1 <0>         0.0549
     42 H18         1.5821   -2.4697    5.9797 H         1 <0>         0.0680
     43 H19         3.3266   -2.6905    6.2560 H         1 <0>         0.0607
     44 H20         2.6593   -0.4163    6.5533 H         1 <0>         0.3813
     45 H21         1.3389   -5.6327    4.7150 H         1 <0>         0.3838
     46 H22         2.7175   -6.4994    1.7583 H         1 <0>         0.3860
     47 H23        -0.3528   -4.1273    1.8997 H         1 <0>         0.3791
     48 H24         0.7443   -1.7604   -1.2668 H         1 <0>         0.3810
@<TRIPOS>BOND
     1    1    2 1
     2    1   32 1
     3    1   33 1
     4    1   34 1
     5    2    3 1
     6    2    4 1
     7    2   31 1
     8    4    5 1
     9    4    6 1
    10    4   14 1
    11    6   11 ar
    12    6    7 ar
    13    7    8 ar
    14    7   35 1
    15    8    9 ar
    16    8   36 1
    17    9   10 ar
    18    9   12 1
    19   10   11 ar
    20   10   37 1
    21   11   38 1
    22   12   13 1
    23   13   39 1
    24   13   40 1
    25   13   41 1
    26   14   15 1
    27   15   16 1
    28   15   25 1
    29   15   17 1
    30   17   18 1
    31   17   19 1
    32   17   30 1
    33   19   20 1
    34   19   21 1
    35   19   29 1
    36   21   22 1
    37   21   23 1
    38   21   28 1
    39   23   24 1
    40   23   25 1
    41   23   26 1
    42   26   27 1
    43   26   42 1
    44   26   43 1
    45   27   44 1
    46   28   45 1
    47   29   46 1
    48   30   47 1
    49   31   48 1
@<TRIPOS>MOLECULE
ZINC44135848
   42    42     0     0     0
SMALL
USER_CHARGES

@<TRIPOS>ATOM
      1 C1         -0.0403    1.7633   -0.0154 C.3       1 <0>        -0.6082
      2 S1         -0.0011   -0.0501   -0.0364 S.o2      1 <0>         2.3637
      3 O1          0.8285   -0.5339    1.0110 O.2       1 <0>        -0.8490
      4 O2         -1.3125   -0.5660   -0.2186 O.2       1 <0>        -0.8320
      5 S2          0.9963   -0.5357   -1.7603 S.3       1 <0>        -0.7620
      6 C2          2.7327   -0.1749   -1.3791 C.3       1 <0>        -0.0075
      7 C3          3.2554   -1.1960   -0.3666 C.3       1 <0>         0.1109
      8 N1          4.6577   -0.9047   -0.0588 N.am      1 <0>        -0.7422
      9 C4          5.3307   -1.6790    0.8153 C.2       1 <0>         0.7107
     10 O3          4.7739   -2.6192    1.3484 O.2       1 <0>        -0.5822
     11 N2          6.6208   -1.4110    1.0985 N.am      1 <0>        -0.7416
     12 C5          7.3523   -2.2526    2.0487 C.3       1 <0>         0.2937
     13 H1          6.8392   -3.2081    2.1578 H         1 <0>         0.1372
     14 C6          8.7727   -2.4921    1.5303 C.3       1 <0>         0.0392
     15 H2          9.3046   -3.1512    2.2164 H         1 <0>         0.0906
     16 C7          9.5066   -1.1508    1.4366 C.3       1 <0>         0.0812
     17 H3         10.5363   -1.3198    1.1215 H         1 <0>         0.0793
     18 C8          9.4957   -0.4782    2.8128 C.3       1 <0>         0.0887
     19 H4         10.0422   -1.0966    3.5248 H         1 <0>         0.0849
     20 C9          8.0474   -0.3165    3.2817 C.3       1 <0>         0.0969
     21 H5          7.5122    0.3350    2.5908 H         1 <0>         0.0851
     22 O4          7.4135   -1.5970    3.3170 O.3       1 <0>        -0.3573
     23 C10         8.0302    0.3003    4.6817 C.3       1 <0>         0.0877
     24 O5          6.6800    0.5587    5.0719 O.3       1 <0>        -0.5644
     25 O6         10.1156    0.8061    2.7215 O.3       1 <0>        -0.5431
     26 O7          8.8477   -0.3107    0.4868 O.3       1 <0>        -0.5469
     27 O8          8.7134   -3.0967    0.2368 O.3       1 <0>        -0.5529
     28 H6          0.9793    2.1488   -0.0136 H         1 <0>         0.1408
     29 H7         -0.5641    2.1256   -0.9000 H         1 <0>         0.1487
     30 H8         -0.5596    2.1052    0.8798 H         1 <0>         0.1515
     31 H9          3.3248   -0.2331   -2.2924 H         1 <0>         0.1283
     32 H10         2.8117    0.8274   -0.9581 H         1 <0>         0.1006
     33 H11         2.6633   -1.1379    0.5467 H         1 <0>         0.1069
     34 H12         3.1764   -2.1983   -0.7877 H         1 <0>         0.0859
     35 H13         5.1019   -0.1546   -0.4841 H         1 <0>         0.3964
     36 H14         7.0650   -0.6608    0.6732 H         1 <0>         0.4051
     37 H15         8.4867   -0.3918    5.3893 H         1 <0>         0.0529
     38 H16         8.5913    1.2347    4.6740 H         1 <0>         0.0718
     39 H17         6.5930    0.9511    5.9514 H         1 <0>         0.3819
     40 H18        11.0357    0.7786    2.4251 H         1 <0>         0.3855
     41 H19         8.8128   -0.6791   -0.4066 H         1 <0>         0.3906
     42 H20         8.2571   -3.9491    0.2217 H         1 <0>         0.3925
@<TRIPOS>BOND
     1    1    2 1
     2    1   28 1
     3    1   29 1
     4    1   30 1
     5    2    3 2
     6    2    4 2
     7    2    5 1
     8    5    6 1
     9    6    7 1
    10    6   31 1
    11    6   32 1
    12    7    8 1
    13    7   33 1
    14    7   34 1
    15    8    9 am
    16    8   35 1
    17    9   10 2
    18    9   11 am
    19   11   12 1
    20   11   36 1
    21   12   13 1
    22   12   22 1
    23   12   14 1
    24   14   15 1
    25   14   16 1
    26   14   27 1
    27   16   17 1
    28   16   18 1
    29   16   26 1
    30   18   19 1
    31   18   20 1
    32   18   25 1
    33   20   21 1
    34   20   22 1
    35   20   23 1
    36   23   24 1
    37   23   37 1
    38   23   38 1
    39   24   39 1
    40   25   40 1
    41   26   41 1
    42   27   42 1
@<TRIPOS>MOLECULE
ZINC59880069
   44    45     0     0     0
SMALL
USER_CHARGES

@<TRIPOS>ATOM
      1 C1         -0.0187    1.5258    0.0104 C.3       1 <0>        -0.1673
      2 C2          0.0021   -0.0041    0.0020 C.3       1 <0>         0.1271
      3 N1          0.7106   -0.4894    1.1889 N.pl3     1 <0>        -0.3620
      4 C3          0.2249   -1.3595    2.0971 C.2       1 <0>         0.0932
      5 C4          1.2031   -1.5506    3.0486 C.2       1 <0>        -0.2108
      6 C5          2.3092   -0.7559    2.6782 C.2       1 <0>         0.0925
      7 N2          2.0094   -0.1335    1.5701 N.2       1 <0>        -0.2952
      8 C6          1.1113   -2.4242    4.2349 C.2       1 <0>         0.1546
      9 N3          2.1128   -2.5122    5.0548 N.2       1 <0>        -0.2171
     10 N4          2.0257   -3.3413    6.1808 N.pl3     1 <0>        -0.5514
     11 C7          3.0927   -3.4350    7.0543 C.2       1 <0>         0.5654
     12 N5          4.2395   -2.7968    6.9469 N.2       1 <0>        -0.5187
     13 C8          5.0360   -3.1280    7.9689 C.2       1 <0>         0.2195
     14 N6          4.4064   -3.9817    8.7407 N.2       1 <0>        -0.3225
     15 N7          3.1404   -4.1924    8.1711 N.pl3     1 <0>        -0.5057
     16 S1          6.6672   -2.5174    8.2352 S.3       1 <0>         0.1143
     17 C9          7.1982   -3.3362    9.7642 C.3       1 <0>        -0.1168
     18 H1          7.0978   -4.4158    9.6520 H         1 <0>         0.1237
     19 C10         6.3248   -2.8609   10.9271 C.3       1 <0>        -0.1454
     20 C11         8.6384   -2.9921   10.0443 C.2       1 <0>         0.5410
     21 O1          9.1139   -1.9673    9.6031 O.2       1 <0>        -0.5167
     22 N8          9.3980   -3.8231   10.7852 N.am      1 <0>        -0.5180
     23 N9         10.7369   -3.5032   11.0455 N.am      1 <0>        -0.5218
     24 C12        11.4966   -4.3342   11.7864 C.2       1 <0>         0.5132
     25 O2         11.0211   -5.3589   12.2276 O.2       1 <0>        -0.5443
     26 C13        12.9368   -3.9900   12.0664 C.3       1 <0>        -0.1601
     27 H2          1.0039    1.9031    0.0027 H         1 <0>         0.0729
     28 H3         -0.5459    1.8868   -0.8726 H         1 <0>         0.0775
     29 H4         -0.5289    1.8773    0.9072 H         1 <0>         0.0615
     30 H5         -1.0205   -0.3814    0.0098 H         1 <0>         0.0988
     31 H6          0.5123   -0.3556   -0.8948 H         1 <0>         0.0893
     32 H7         -0.7512   -1.8215    2.0817 H         1 <0>         0.1832
     33 H8          3.2428   -0.6793    3.2156 H         1 <0>         0.1937
     34 H9          0.2103   -2.9902    4.4203 H         1 <0>         0.1185
     35 H10         1.2165   -3.8497    6.3473 H         1 <0>         0.3976
     36 H11         6.4252   -1.7814   11.0393 H         1 <0>         0.0774
     37 H12         5.2831   -3.1098   10.7245 H         1 <0>         0.0867
     38 H13         6.6439   -3.3530   11.8459 H         1 <0>         0.0724
     39 H14         9.0177   -4.6427   11.1381 H         1 <0>         0.4345
     40 H15        11.1172   -2.6836   10.6926 H         1 <0>         0.4342
     41 H16        13.1822   -3.0399   11.5920 H         1 <0>         0.0830
     42 H17        13.0881   -3.9084   13.1428 H         1 <0>         0.1047
     43 H18        13.5817   -4.7728   11.6672 H         1 <0>         0.1049
     44 H19         2.4392   -4.7697    8.5115 H         1 <0>         0.4384
@<TRIPOS>BOND
     1    1    2 1
     2    1   27 1
     3    1   28 1
     4    1   29 1
     5    2    3 1
     6    2   30 1
     7    2   31 1
     8    3    7 1
     9    3    4 1
    10    4    5 2
    11    4   32 1
    12    5    6 1
    13    5    8 1
    14    6    7 2
    15    6   33 1
    16    8    9 2
    17    8   34 1
    18    9   10 1
    19   10   11 1
    20   10   35 1
    21   11   15 1
    22   11   12 2
    23   12   13 1
    24   13   14 2
    25   13   16 1
    26   14   15 1
    27   15   44 1
    28   16   17 1
    29   17   18 1
    30   17   19 1
    31   17   20 1
    32   19   36 1
    33   19   37 1
    34   19   38 1
    35   20   21 2
    36   20   22 am
    37   22   23 1
    38   22   39 1
    39   23   24 am
    40   23   40 1
    41   24   25 2
    42   24   26 1
    43   26   41 1
    44   26   42 1
    45   26   43 1
@<TRIPOS>MOLECULE
ZINC64409418
   48    50     0     0     0
SMALL
USER_CHARGES

@<TRIPOS>ATOM
      1 C1          1.1370   -0.5370   -0.6441 C.ar      1 <0>        -0.0376
      2 C2          2.3168    0.1724   -0.6420 C.ar      1 <0>        -0.1296
      3 C3          2.3813    1.4165   -0.0222 C.ar      1 <0>         0.1715
      4 C4          1.2545    1.9477    0.5972 C.ar      1 <0>        -0.1537
      5 C5          0.0715    1.2436    0.5988 C.ar      1 <0>        -0.0654
      6 C6          0.0032   -0.0060   -0.0232 C.ar      1 <0>        -0.1566
      7 C7         -1.2636   -0.7635   -0.0239 C.2       1 <0>         0.5639
      8 O1         -1.3214   -1.8508   -0.5651 O.2       1 <0>        -0.5392
      9 N1         -2.3562   -0.2501    0.5754 N.am      1 <0>        -0.8518
     10 N2          3.5780    2.1321   -0.0216 N.am      1 <0>        -0.6741
     11 C8          4.7538    1.4790    0.0650 C.2       1 <0>         0.5129
     12 O2          4.7758    0.2664    0.0584 O.2       1 <0>        -0.5146
     13 C9          6.0411    2.2554    0.1699 C.3       1 <0>        -0.1278
     14 C10         7.2184    1.2819    0.2544 C.3       1 <0>        -0.0584
     15 C11         8.5057    2.0583    0.3593 C.2       1 <0>         0.2162
     16 C12         9.8420    1.3357    0.4578 C.3       1 <0>        -0.0819
     17 S1         10.9893    2.7416    0.1115 S.3       1 <0>        -0.3230
     18 C13         9.7606    4.0727    0.4709 C.3       1 <0>         0.3729
     19 H1          9.8973    4.4741    1.4750 H         1 <0>         0.1416
     20 N3          8.4975    3.3145    0.3619 N.2       1 <0>        -0.5281
     21 N4          9.8243    5.1371   -0.5338 N.am      1 <0>        -0.6963
     22 C14        10.8268    6.0372   -0.4993 C.2       1 <0>         0.5763
     23 O3         11.6781    5.9659    0.3654 O.2       1 <0>        -0.5132
     24 C15        10.8912    7.1113   -1.5133 C.2       1 <0>        -0.2526
     25 C16        11.9054    8.0135   -1.4794 C.2       1 <0>         0.0507
     26 C17        11.9147    9.0899   -2.5464 C.3       1 <0>        -0.2022
     27 C18        10.7916    9.0681   -3.5604 C.2       1 <0>         0.5025
     28 O4         10.7413    9.9024   -4.4411 O.2       1 <0>        -0.4364
     29 N5          9.8550    8.1165   -3.4732 N.2       1 <0>        -0.5668
     30 C19         9.8664    7.1945   -2.5516 C.2       1 <0>         0.3039
     31 H2          1.0865   -1.5007   -1.1289 H         1 <0>         0.1411
     32 H3          3.1934   -0.2373   -1.1216 H         1 <0>         0.1476
     33 H4          1.3079    2.9135    1.0777 H         1 <0>         0.1337
     34 H5         -0.8027    1.6562    1.0804 H         1 <0>         0.1310
     35 H6         -2.3100    0.6173    1.0071 H         1 <0>         0.4004
     36 H7         -3.1887   -0.7479    0.5749 H         1 <0>         0.4063
     37 H8          3.5643    3.1001   -0.0834 H         1 <0>         0.4155
     38 H9          6.1560    2.8890   -0.7096 H         1 <0>         0.1073
     39 H10         6.0186    2.8769    1.0650 H         1 <0>         0.1073
     40 H11        10.0011    0.9312    1.4574 H         1 <0>         0.1274
     41 H12         7.1035    0.6483    1.1338 H         1 <0>         0.1091
     42 H13         9.9285    0.5574   -0.3004 H         1 <0>         0.1329
     43 H14         7.2409    0.6603   -0.6408 H         1 <0>         0.1107
     44 H15         9.1450    5.1939   -1.2239 H         1 <0>         0.4095
     45 H16        12.6742    7.9662   -0.7225 H         1 <0>         0.1685
     46 H17        11.8955   10.0580   -2.0459 H         1 <0>         0.1410
     47 H18        12.8573    9.0160   -3.0888 H         1 <0>         0.1409
     48 H19         9.0762    6.4582   -2.5527 H         1 <0>         0.1667
@<TRIPOS>BOND
     1    1    6 ar
     2    1    2 ar
     3    1   31 1
     4    2    3 ar
     5    2   32 1
     6    3    4 ar
     7    3   10 1
     8    4    5 ar
     9    4   33 1
    10    5    6 ar
    11    5   34 1
    12    6    7 1
    13    7    8 2
    14    7    9 am
    15    9   35 1
    16    9   36 1
    17   10   11 am
    18   10   37 1
    19   11   12 2
    20   11   13 1
    21   13   38 1
    22   13   39 1
    23   13   14 1
    24   14   15 1
    25   14   41 1
    26   14   43 1
    27   15   16 1
    28   15   20 2
    29   16   17 1
    30   16   42 1
    31   16   40 1
    32   17   18 1
    33   18   19 1
    34   18   21 1
    35   18   20 1
    36   21   22 am
    37   21   44 1
    38   22   23 2
    39   22   24 1
    40   24   30 1
    41   24   25 2
    42   25   26 1
    43   25   45 1
    44   26   27 1
    45   26   46 1
    46   26   47 1
    47   27   28 2
    48   27   29 1
    49   29   30 2
    50   30   48 1
@<TRIPOS>MOLECULE
ZINC17103352
   42    42     0     0     0
SMALL
USER_CHARGES
[2-oxo-2-(2,2,2-trifluoroethylcarbamoylamino)ethyl] 2-[2-[(5-methylisoxazol-3-yl)amino]-2-oxo-ethyl]sulfanylacetate
@<TRIPOS>ATOM
      1 C1          2.5003    1.5459   -0.0140 C.3       1 <0>        -0.0764
      2 C2          1.0414    1.9233    0.0024 C.2       1 <0>        -0.0170
      3 C3         -0.0126    1.0758    0.0080 C.2       1 <0>        -0.2289
      4 C4         -1.1432    1.9353    0.0171 C.2       1 <0>         0.2445
      5 N1         -0.6740    3.1554    0.0255 N.2       1 <0>        -0.3869
      6 O1          0.5351    3.1648    0.0140 O.3       1 <0>         0.0994
      7 N2         -2.4851    1.5540    0.0204 N.am      1 <0>        -0.6278
      8 C5         -2.8143    0.2471    0.0146 C.2       1 <0>         0.5442
      9 O2         -1.9439   -0.5974    0.0065 O.2       1 <0>        -0.4870
     10 C6         -4.2639   -0.1648    0.0181 C.3       1 <0>        -0.1463
     11 S1         -4.3781   -1.9752    0.0087 S.3       1 <0>        -0.0890
     12 C7         -6.1623   -2.3024    0.0140 C.3       1 <0>        -0.1253
     13 C8         -6.4002   -3.7905    0.0068 C.2       1 <0>         0.4874
     14 O3         -5.4622   -4.5522   -0.0010 O.2       1 <0>        -0.4783
     15 O4         -7.6540   -4.2698    0.0092 O.3       1 <0>        -0.3282
     16 C9         -7.8078   -5.7136    0.0019 C.3       1 <0>         0.0536
     17 C10        -9.2738   -6.0626    0.0058 C.2       1 <0>         0.5207
     18 O5        -10.1066   -5.1816    0.0139 O.2       1 <0>        -0.4367
     19 N3         -9.6590   -7.3541    0.0003 N.am      1 <0>        -0.6848
     20 C11       -10.9702   -7.6663    0.0038 C.2       1 <0>         0.7071
     21 O6        -11.8051   -6.7831    0.0120 O.2       1 <0>        -0.5166
     22 N4        -11.3554   -8.9578   -0.0016 N.am      1 <0>        -0.7363
     23 C12       -12.7806   -9.2971    0.0022 C.3       1 <0>         0.0941
     24 C13       -12.9426  -10.8185   -0.0055 C.3       1 <0>         0.4501
     25 F1        -12.3317  -11.3582    1.1315 F         1 <0>        -0.1768
     26 F2        -14.3036  -11.1425   -0.0018 F         1 <0>        -0.1682
     27 F3        -12.3408  -11.3458   -1.1530 F         1 <0>        -0.1768
     28 H1          2.8420    1.4607   -1.0455 H         1 <0>         0.0912
     29 H2          3.0800    2.3136    0.4986 H         1 <0>         0.0861
     30 H3          2.6342    0.5904    0.4932 H         1 <0>         0.0947
     31 H4          0.0021   -0.0041    0.0020 H         1 <0>         0.1911
     32 H5         -3.1812    2.2295    0.0268 H         1 <0>         0.4216
     33 H6         -4.7503    0.2253    0.9121 H         1 <0>         0.1235
     34 H7         -4.7573    0.2350   -0.8678 H         1 <0>         0.1235
     35 H8         -6.6088   -1.8674    0.9081 H         1 <0>         0.1299
     36 H9         -6.6159   -1.8577   -0.8718 H         1 <0>         0.1299
     37 H10        -7.3388   -6.1244   -0.8922 H         1 <0>         0.1148
     38 H11        -7.3318   -6.1341    0.8878 H         1 <0>         0.1148
     39 H12        -8.9927   -8.0590   -0.0061 H         1 <0>         0.4158
     40 H13       -10.6891   -9.6626   -0.0081 H         1 <0>         0.4081
     41 H14       -13.2495   -8.8862    0.8962 H         1 <0>         0.1207
     42 H15       -13.2565   -8.8765   -0.8837 H         1 <0>         0.1207
@<TRIPOS>BOND
     1    1    2 1
     2    1   28 1
     3    1   29 1
     4    1   30 1
     5    2    6 1
     6    2    3 2
     7    3    4 1
     8    3   31 1
     9    4    5 2
    10    4    7 1
    11    5    6 1
    12    7    8 am
    13    7   32 1
    14    8    9 2
    15    8   10 1
    16   10   11 1
    17   10   33 1
    18   10   34 1
    19   11   12 1
    20   12   13 1
    21   12   35 1
    22   12   36 1
    23   13   14 2
    24   13   15 1
    25   15   16 1
    26   16   17 1
    27   16   37 1
    28   16   38 1
    29   17   18 2
    30   17   19 am
    31   19   20 am
    32   19   39 1
    33   20   21 2
    34   20   22 am
    35   22   23 1
    36   22   40 1
    37   23   24 1
    38   23   41 1
    39   23   42 1
    40   24   25 1
    41   24   26 1
    42   24   27 1
@<TRIPOS>MOLECULE
ZINC41854126
   39    39     0     0     0
SMALL
USER_CHARGES

@<TRIPOS>ATOM
      1 C1         -0.0407    1.8588   -0.0426 C.3       1 <0>        -0.6736
      2 S1         -0.0186    0.0450   -0.0408 S.o2      1 <0>         2.6165
      3 O1          0.8097   -0.4334    1.0101 O.2       1 <0>        -0.9550
      4 O2         -1.3355   -0.4607   -0.2126 O.2       1 <0>        -0.9564
      5 N1          0.7789   -0.3723   -1.4308 N.pl3     1 <0>        -1.1209
      6 C2          2.1926   -0.0254   -1.5965 C.3       1 <0>         0.1163
      7 C3          2.7813   -0.8262   -2.7597 C.3       1 <0>        -0.1420
      8 C4          4.2577   -0.4639   -2.9327 C.3       1 <0>         0.1158
      9 N2          4.8214   -1.2307   -4.0465 N.am      1 <0>        -0.6945
     10 C5          6.1165   -1.0742   -4.3851 C.2       1 <0>         0.5131
     11 O3          6.8157   -0.2981   -3.7674 O.2       1 <0>        -0.5046
     12 C6          6.6912   -1.8559   -5.5205 C.2       1 <0>         0.5155
     13 O4          5.9919   -2.6322   -6.1383 O.2       1 <0>        -0.4858
     14 N3          7.9863   -1.6995   -5.8591 N.am      1 <0>        -0.6440
     15 C7          8.5486   -2.4980   -6.8590 C.ar      1 <0>         0.2053
     16 C8          7.7827   -2.8907   -7.9493 C.ar      1 <0>        -0.1104
     17 C9          8.3412   -3.6797   -8.9355 C.ar      1 <0>        -0.0266
     18 C10         9.6617   -4.0796   -8.8389 C.ar      1 <0>        -0.0521
     19 C11        10.4277   -3.6914   -7.7552 C.ar      1 <0>        -0.0245
     20 C12         9.8773   -2.8963   -6.7676 C.ar      1 <0>        -0.0671
     21 Cl1        10.8415   -2.4027   -5.4111 Cl        1 <0>        -0.0230
     22 N4         10.2562   -4.9257   -9.8980 N.pl3     1 <0>         0.0342
     23 O5          9.5877   -5.2664  -10.8460 O.2       1 <0>        -0.1479
     24 O6         11.4104   -5.2761   -9.8150 O.3       1 <0>        -0.1507
     25 H1          0.9825    2.2346   -0.0487 H         1 <0>         0.1272
     26 H2         -0.5638    2.2149   -0.9300 H         1 <0>         0.1294
     27 H3         -0.5539    2.2168    0.8499 H         1 <0>         0.1311
     28 H4          0.3101   -0.8465   -2.1353 H         1 <0>         0.4201
     29 H5          2.2829    1.0404   -1.8066 H         1 <0>         0.0707
     30 H6          2.7346   -0.2624   -0.6810 H         1 <0>         0.0878
     31 H7          2.6910   -1.8920   -2.5495 H         1 <0>         0.0855
     32 H8          2.2393   -0.5892   -3.6751 H         1 <0>         0.0833
     33 H9          4.3480    0.6019   -3.1428 H         1 <0>         0.0826
     34 H10         4.7997   -0.7009   -2.0172 H         1 <0>         0.0838
     35 H11         4.2625   -1.8510   -4.5402 H         1 <0>         0.4164
     36 H12         8.5282   -1.0327   -5.4089 H         1 <0>         0.4327
     37 H13         6.7512   -2.5797   -8.0255 H         1 <0>         0.1731
     38 H14         7.7460   -3.9852   -9.7833 H         1 <0>         0.1676
     39 H15        11.4583   -4.0061   -7.6826 H         1 <0>         0.1711
@<TRIPOS>BOND
     1    1    2 1
     2    1   25 1
     3    1   26 1
     4    1   27 1
     5    2    3 2
     6    2    4 2
     7    2    5 1
     8    5    6 1
     9    5   28 1
    10    6    7 1
    11    6   29 1
    12    6   30 1
    13    7    8 1
    14    7   31 1
    15    7   32 1
    16    8    9 1
    17    8   33 1
    18    8   34 1
    19    9   10 am
    20    9   35 1
    21   10   11 2
    22   10   12 1
    23   12   13 2
    24   12   14 am
    25   14   15 1
    26   14   36 1
    27   15   20 ar
    28   15   16 ar
    29   16   17 ar
    30   16   37 1
    31   17   18 ar
    32   17   38 1
    33   18   19 ar
    34   18   22 1
    35   19   20 ar
    36   19   39 1
    37   20   21 1
    38   22   23 2
    39   22   24 1
@<TRIPOS>MOLECULE
ZINC56105172
   47    48     0     0     0
SMALL
USER_CHARGES

@<TRIPOS>ATOM
      1 C1         -0.0180    1.4606    0.0100 C.3       1 <0>         0.0576
      2 N1          0.0010   -0.0042    0.0021 N.pl3     1 <0>        -0.3977
      3 C2         -0.0899   -0.7900   -1.0984 C.2       1 <0>         0.1468
      4 C3         -0.0367   -2.0882   -0.7155 C.2       1 <0>        -0.7529
      5 C4          0.0924   -2.1199    0.6765 C.2       1 <0>        -0.0521
      6 C5          0.1200   -0.8116    1.1106 C.2       1 <0>        -0.0578
      7 C6          0.2492   -0.3619    2.5008 C.2       1 <0>         0.5953
      8 O1          0.1697    0.8229    2.7670 O.2       1 <0>        -0.5462
      9 N2          0.4559   -1.2609    3.4834 N.am      1 <0>        -0.8400
     10 S1         -0.1160   -3.4885   -1.7821 S.o2      1 <0>         2.7217
     11 O2         -0.5813   -4.5745   -0.9926 O.2       1 <0>        -0.9576
     12 O3         -0.7840   -3.0630   -2.9619 O.2       1 <0>        -0.9622
     13 N3          1.4371   -3.8559   -2.2240 N.pl3     1 <0>        -1.1102
     14 C7          2.3986   -4.3070   -1.2148 C.3       1 <0>         0.1726
     15 C8          3.5946   -4.9180   -1.8983 C.ar      1 <0>        -0.1479
     16 C9          3.7020   -6.2923   -2.0039 C.ar      1 <0>        -0.0495
     17 C10         4.7969   -6.8576   -2.6298 C.ar      1 <0>        -0.2037
     18 C11         5.7928   -6.0475   -3.1545 C.ar      1 <0>         0.1316
     19 C12         5.6885   -4.6658   -3.0509 C.ar      1 <0>         0.0418
     20 C13         4.5831   -4.1010   -2.4253 C.ar      1 <0>         0.1338
     21 O4          4.4738   -2.7491   -2.3259 O.3       1 <0>        -0.3251
     22 C14         5.0409   -2.1360   -1.1663 C.3       1 <0>         0.0382
     23 O5          6.6636   -3.8674   -3.5645 O.3       1 <0>        -0.3194
     24 C15         6.5118   -3.4499   -4.9227 C.3       1 <0>         0.0379
     25 O6          6.8703   -6.6048   -3.7694 O.3       1 <0>        -0.3036
     26 C16         6.9116   -8.0315   -3.8391 C.3       1 <0>         0.0229
     27 H1          1.0049    1.8372    0.0119 H         1 <0>         0.0852
     28 H2         -0.5365    1.8221   -0.8780 H         1 <0>         0.0926
     29 H3         -0.5364    1.8125    0.9019 H         1 <0>         0.1068
     30 H4         -0.1886   -0.4385   -2.1148 H         1 <0>         0.1900
     31 H5          0.1611   -3.0027    1.2948 H         1 <0>         0.1606
     32 H6          0.5924   -2.1960    3.2644 H         1 <0>         0.4056
     33 H7          0.4683   -0.9729    4.4096 H         1 <0>         0.4124
     34 H8          1.7102   -3.7725   -3.1510 H         1 <0>         0.4208
     35 H9          2.7191   -3.4568   -0.6128 H         1 <0>         0.0729
     36 H10         1.9282   -5.0509   -0.5718 H         1 <0>         0.0911
     37 H11         2.9283   -6.9259   -1.5960 H         1 <0>         0.1408
     38 H12         4.8773   -7.9316   -2.7099 H         1 <0>         0.1401
     39 H13         6.1097   -2.3469   -1.1297 H         1 <0>         0.0539
     40 H14         4.8846   -1.0582   -1.2121 H         1 <0>         0.0950
     41 H15         4.5610   -2.5351   -0.2728 H         1 <0>         0.0476
     42 H16         5.5854   -2.8852   -5.0278 H         1 <0>         0.0490
     43 H17         7.3552   -2.8201   -5.2057 H         1 <0>         0.0938
     44 H18         6.4789   -4.3258   -5.5706 H         1 <0>         0.0456
     45 H19         6.9036   -8.4449   -2.8306 H         1 <0>         0.0592
     46 H20         6.0418   -8.3938   -4.3871 H         1 <0>         0.0585
     47 H21         7.8207   -8.3441   -4.3527 H         1 <0>         0.1042
@<TRIPOS>BOND
     1    1    2 1
     2    1   27 1
     3    1   28 1
     4    1   29 1
     5    2    6 1
     6    2    3 1
     7    3    4 2
     8    3   30 1
     9    4    5 1
    10    4   10 1
    11    5    6 2
    12    5   31 1
    13    6    7 1
    14    7    8 2
    15    7    9 am
    16    9   32 1
    17    9   33 1
    18   10   11 2
    19   10   12 2
    20   10   13 1
    21   13   14 1
    22   13   34 1
    23   14   15 1
    24   14   35 1
    25   14   36 1
    26   15   20 ar
    27   15   16 ar
    28   16   17 ar
    29   16   37 1
    30   17   18 ar
    31   17   38 1
    32   18   19 ar
    33   18   25 1
    34   19   20 ar
    35   19   23 1
    36   20   21 1
    37   21   22 1
    38   22   39 1
    39   22   40 1
    40   22   41 1
    41   23   24 1
    42   24   42 1
    43   24   43 1
    44   24   44 1
    45   25   26 1
    46   26   45 1
    47   26   46 1
    48   26   47 1
@<TRIPOS>MOLECULE
ZINC64590032
   47    47     0     0     0
SMALL
USER_CHARGES

@<TRIPOS>ATOM
      1 C1         -0.2611    1.5551   -0.6865 C.3       1 <0>        -0.1528
      2 C2         -0.2839    0.0305   -0.8130 C.3       1 <0>         0.0530
      3 O1         -1.3416   -0.4983   -0.0106 O.3       1 <0>        -0.3114
      4 C3         -1.5006   -1.8485   -0.0107 C.ar      1 <0>         0.1224
      5 C4         -0.6513   -2.6466   -0.7640 C.ar      1 <0>        -0.1856
      6 C5         -0.8120   -4.0176   -0.7647 C.ar      1 <0>        -0.0817
      7 C6         -1.8244   -4.5984   -0.0110 C.ar      1 <0>         0.1026
      8 C7         -2.6740   -3.7987    0.7426 C.ar      1 <0>        -0.0996
      9 C8         -2.5082   -2.4279    0.7466 C.ar      1 <0>        -0.0969
     10 C9         -3.4259   -1.5605    1.5690 C.3       1 <0>        -0.1058
     11 N1         -1.9883   -5.9874   -0.0116 N.am      1 <0>        -0.6389
     12 C10        -0.9133   -6.7928   -0.1228 C.2       1 <0>         0.5069
     13 O2          0.2035   -6.3173   -0.1261 O.2       1 <0>        -0.5005
     14 C11        -1.0963   -8.2701   -0.2420 C.2       1 <0>         0.5114
     15 O3         -2.2129   -8.7455   -0.2388 O.2       1 <0>        -0.5126
     16 N2         -0.0213   -9.0754   -0.3533 N.am      1 <0>        -0.6988
     17 C12        -0.2008  -10.5246   -0.4702 C.3       1 <0>         0.1165
     18 C13         1.1673  -11.2006   -0.5819 C.3       1 <0>        -0.1417
     19 C14         0.9799  -12.7141   -0.7040 C.3       1 <0>         0.1162
     20 N3          2.2898  -13.3613   -0.8110 N.pl3     1 <0>        -1.1208
     21 S1          2.4268  -14.9959   -0.5834 S.o2      1 <0>         2.6167
     22 O4          3.8133  -15.2681   -0.7344 O.2       1 <0>        -0.9571
     23 O5          1.7696  -15.2464    0.6513 O.2       1 <0>        -0.9552
     24 C15         1.4922  -15.7368   -1.9503 C.3       1 <0>        -0.6737
     25 H1          0.5456    1.9584   -1.2986 H         1 <0>         0.0791
     26 H2         -1.2134    1.9622   -1.0263 H         1 <0>         0.0668
     27 H3         -0.0992    1.8308    0.3556 H         1 <0>         0.0668
     28 H4         -0.4458   -0.2452   -1.8551 H         1 <0>         0.0625
     29 H5          0.6684   -0.3766   -0.4732 H         1 <0>         0.0626
     30 H6          0.1354   -2.1950   -1.3500 H         1 <0>         0.1334
     31 H7         -0.1511   -4.6386   -1.3513 H         1 <0>         0.1368
     32 H8         -3.4613   -4.2493    1.3287 H         1 <0>         0.1360
     33 H9         -4.2905   -1.2755    0.9694 H         1 <0>         0.0708
     34 H10        -3.7591   -2.1141    2.4468 H         1 <0>         0.0666
     35 H11        -2.8920   -0.6645    1.8856 H         1 <0>         0.0727
     36 H12        -2.8756   -6.3711    0.0681 H         1 <0>         0.4231
     37 H13         0.8712   -8.6954   -0.3559 H         1 <0>         0.4154
     38 H14        -0.7200  -10.8988    0.4121 H         1 <0>         0.0817
     39 H15        -0.7897  -10.7472   -1.3600 H         1 <0>         0.0802
     40 H16         1.6865  -10.8264   -1.4642 H         1 <0>         0.0825
     41 H17         1.7562  -10.9780    0.3079 H         1 <0>         0.0849
     42 H18         0.4607  -13.0883    0.1783 H         1 <0>         0.0876
     43 H19         0.3909  -12.9367   -1.5938 H         1 <0>         0.0704
     44 H20         3.0769  -12.8324   -1.0151 H         1 <0>         0.4200
     45 H21         1.9273  -15.4240   -2.8995 H         1 <0>         0.1292
     46 H22         1.5338  -16.8232   -1.8720 H         1 <0>         0.1308
     47 H23         0.4541  -15.4084   -1.9007 H         1 <0>         0.1273
@<TRIPOS>BOND
     1    1    2 1
     2    1   25 1
     3    1   26 1
     4    1   27 1
     5    2    3 1
     6    2   28 1
     7    2   29 1
     8    3    4 1
     9    4    9 ar
    10    4    5 ar
    11    5    6 ar
    12    5   30 1
    13    6    7 ar
    14    6   31 1
    15    7    8 ar
    16    7   11 1
    17    8    9 ar
    18    8   32 1
    19    9   10 1
    20   10   33 1
    21   10   34 1
    22   10   35 1
    23   11   12 am
    24   11   36 1
    25   12   13 2
    26   12   14 1
    27   14   15 2
    28   14   16 am
    29   16   17 1
    30   16   37 1
    31   17   18 1
    32   17   38 1
    33   17   39 1
    34   18   19 1
    35   18   40 1
    36   18   41 1
    37   19   20 1
    38   19   42 1
    39   19   43 1
    40   20   21 1
    41   20   44 1
    42   21   22 2
    43   21   23 2
    44   21   24 1
    45   24   45 1
    46   24   46 1
    47   24   47 1
@<TRIPOS>MOLECULE
ZINC67533540
   45    45     0     0     0
SMALL
USER_CHARGES

@<TRIPOS>ATOM
      1 C1         -0.0193    1.5261    0.0401 C.3       1 <0>        -0.1515
      2 C2          0.0015   -0.0037    0.0232 C.3       1 <0>        -0.1361
      3 C3         -1.4338   -0.5334    0.0377 C.3       1 <0>         0.1156
      4 N1         -1.4139   -1.9982    0.0215 N.am      1 <0>        -0.7312
      5 C4         -2.5717   -2.6880    0.0303 C.2       1 <0>         0.5173
      6 O1         -3.6301   -2.0961    0.0516 O.2       1 <0>        -0.5327
      7 C5         -2.5512   -4.1948    0.0137 C.3       1 <0>        -0.1561
      8 C6         -3.9865   -4.7245    0.0282 C.3       1 <0>         0.1314
      9 N2         -3.9666   -6.1893    0.0120 N.am      1 <0>        -0.6990
     10 C7         -5.1244   -6.8791    0.0208 C.2       1 <0>         0.5115
     11 O2         -6.1835   -6.2868    0.0421 O.2       1 <0>        -0.5054
     12 C8         -5.1041   -8.3724    0.0044 C.2       1 <0>         0.5128
     13 O3         -4.0450   -8.9648   -0.0169 O.2       1 <0>        -0.4988
     14 N3         -6.2620   -9.0622    0.0132 N.am      1 <0>        -0.6436
     15 C9         -6.2464  -10.4548   -0.0999 C.ar      1 <0>         0.1205
     16 C10        -5.2209  -11.1893    0.4828 C.ar      1 <0>        -0.0545
     17 C11        -5.2085  -12.5653    0.3690 C.ar      1 <0>        -0.1175
     18 C12        -6.2155  -13.2126   -0.3240 C.ar      1 <0>        -0.0206
     19 C13        -7.2372  -12.4848   -0.9054 C.ar      1 <0>        -0.6395
     20 C14        -7.2591  -11.1085   -0.7903 C.ar      1 <0>        -0.0331
     21 S1         -8.5168  -13.3144   -1.7881 S.o2      1 <0>         2.4776
     22 O4         -8.9950  -12.3548   -2.7206 O.2       1 <0>        -0.8862
     23 O5         -7.9226  -14.5253   -2.2351 O.2       1 <0>        -0.8848
     24 C15        -9.7896  -13.6650   -0.5440 C.3       1 <0>        -0.2097
     25 F1         -9.2481  -14.4718    0.4625 F         1 <0>        -0.1631
     26 F2        -10.2404  -12.4636    0.0133 F         1 <0>        -0.1636
     27 H1          1.0032    1.9035    0.0298 H         1 <0>         0.0615
     28 H2         -0.5505    1.8919   -0.8386 H         1 <0>         0.0587
     29 H3         -0.5254    1.8727    0.9411 H         1 <0>         0.0587
     30 H4          0.5077   -0.3503   -0.8778 H         1 <0>         0.0693
     31 H5          0.5327   -0.3695    0.9019 H         1 <0>         0.0692
     32 H6         -1.9400   -0.1868    0.9386 H         1 <0>         0.0695
     33 H7         -1.9650   -0.1676   -0.8410 H         1 <0>         0.0696
     34 H8         -0.5674   -2.4716    0.0045 H         1 <0>         0.4024
     35 H9         -2.0451   -4.5414   -0.8873 H         1 <0>         0.1054
     36 H10        -2.0201   -4.5606    0.8924 H         1 <0>         0.1052
     37 H11        -4.4927   -4.3779    0.9291 H         1 <0>         0.0864
     38 H12        -4.5177   -4.3587   -0.8505 H         1 <0>         0.0864
     39 H13        -3.1201   -6.6627   -0.0050 H         1 <0>         0.4139
     40 H14        -7.1061   -8.5919    0.0980 H         1 <0>         0.4282
     41 H15        -4.4341  -10.6845    1.0237 H         1 <0>         0.1515
     42 H16        -4.4116  -13.1368    0.8214 H         1 <0>         0.1448
     43 H17        -6.2034  -14.2890   -0.4114 H         1 <0>         0.1499
     44 H18        -8.0602  -10.5410   -1.2403 H         1 <0>         0.1518
     45 H19       -10.6250  -14.1831   -1.0149 H         1 <0>         0.1580
@<TRIPOS>BOND
     1    1    2 1
     2    1   27 1
     3    1   28 1
     4    1   29 1
     5    2    3 1
     6    2   30 1
     7    2   31 1
     8    3    4 1
     9    3   32 1
    10    3   33 1
    11    4    5 am
    12    4   34 1
    13    5    6 2
    14    5    7 1
    15    7    8 1
    16    7   35 1
    17    7   36 1
    18    8    9 1
    19    8   37 1
    20    8   38 1
    21    9   10 am
    22    9   39 1
    23   10   11 2
    24   10   12 1
    25   12   13 2
    26   12   14 am
    27   14   15 1
    28   14   40 1
    29   15   20 ar
    30   15   16 ar
    31   16   17 ar
    32   16   41 1
    33   17   18 ar
    34   17   42 1
    35   18   19 ar
    36   18   43 1
    37   19   20 ar
    38   19   21 1
    39   20   44 1
    40   21   22 2
    41   21   23 2
    42   21   24 1
    43   24   25 1
    44   24   26 1
    45   24   45 1
@<TRIPOS>MOLECULE
ZINC16323342
   59    61     0     0     0
SMALL
USER_CHARGES
5-[(1R)-1-hydroxy-2-[4-[[(2-hydroxy-1,1-dimethyl-ethyl)amino]methyl]phenoxy]ethyl]-1,3-dimethyl-benzimidazol-2-one
@<TRIPOS>ATOM
      1 C1         -5.6512   -2.6424    9.1536 C.3       1 <0>        -0.1711
      2 C2         -6.1883   -3.5504    8.0455 C.3       1 <0>         0.0570
      3 C3         -7.7178   -3.5121    8.0513 C.3       1 <0>        -0.1713
      4 C4         -5.7132   -4.9847    8.2863 C.3       1 <0>         0.0661
      5 O1         -6.1963   -5.4404    9.5516 O.3       1 <0>        -0.5530
      6 C5         -6.1294   -1.7050    6.4790 C.3       1 <0>         0.0511
      7 C6         -5.6021   -1.2600    5.1392 C.ar      1 <0>        -0.2101
      8 C7         -6.3516   -1.4733    3.9971 C.ar      1 <0>        -0.0497
      9 C8         -5.8704   -1.0663    2.7678 C.ar      1 <0>        -0.1491
     10 C9         -4.6340   -0.4431    2.6798 C.ar      1 <0>         0.1724
     11 C10        -3.8814   -0.2355    3.8266 C.ar      1 <0>        -0.2112
     12 C11        -4.3698   -0.6388    5.0543 C.ar      1 <0>        -0.0474
     13 O2         -4.1585   -0.0418    1.4717 O.3       1 <0>        -0.2938
     14 C12        -2.8783    0.5930    1.4567 C.3       1 <0>         0.0273
     15 C13        -2.5134    0.9711    0.0197 C.3       1 <0>         0.1619
     16 H1         -3.3073    1.5837   -0.4075 H         1 <0>         0.1225
     17 C14        -1.2225    1.7487    0.0173 C.ar      1 <0>        -0.1200
     18 C15        -0.0126    1.0758    0.0080 C.ar      1 <0>        -0.0990
     19 C16         1.1756    1.7796    0.0004 C.ar      1 <0>        -0.0978
     20 C17         1.1566    3.1661    0.0076 C.ar      1 <0>         0.1013
     21 C18        -0.0635    3.8447    0.0224 C.ar      1 <0>         0.0956
     22 C19        -1.2514    3.1294    0.0306 C.ar      1 <0>        -0.0883
     23 N1          0.2328    5.2057    0.0257 N.am      1 <0>        -0.5419
     24 C20         1.5715    5.3483    0.0135 C.2       1 <0>         0.6778
     25 O3          2.1630    6.4118    0.0120 O.2       1 <0>        -0.5431
     26 N2          2.1565    4.1357    0.0023 N.am      1 <0>        -0.5418
     27 C21         3.5989    3.8798   -0.0127 C.3       1 <0>         0.0971
     28 C22        -0.7455    6.2960    0.0401 C.3       1 <0>         0.0975
     29 O4         -2.3558   -0.2160   -0.7599 O.3       1 <0>        -0.5391
     30 H2         -5.9898   -1.6206    8.9820 H         1 <0>         0.0816
     31 H3         -6.0197   -2.9900   10.1187 H         1 <0>         0.1123
     32 H4         -4.5616   -2.6696    9.1494 H         1 <0>         0.0789
     33 H5         -8.1005   -4.1590    7.2618 H         1 <0>         0.0796
     34 H6         -8.0863   -3.8597    9.0164 H         1 <0>         0.1122
     35 H7         -8.0564   -2.4903    7.8797 H         1 <0>         0.0818
     36 H8         -6.0958   -5.6316    7.4968 H         1 <0>         0.0684
     37 H9         -4.6235   -5.0119    8.2821 H         1 <0>         0.0678
     38 H10        -5.9326   -6.3446    9.7707 H         1 <0>         0.4055
     39 H11        -5.7464   -1.0453    7.2576 H         1 <0>         0.1376
     40 H12        -7.2187   -1.6650    6.4723 H         1 <0>         0.1386
     41 H13        -7.3141   -1.9582    4.0661 H         1 <0>         0.1383
     42 H14        -6.4563   -1.2328    1.8760 H         1 <0>         0.1451
     43 H15        -2.9166    0.2454    3.7602 H         1 <0>         0.1395
     44 H16        -3.7865   -0.4727    5.9480 H         1 <0>         0.1333
     45 H17        -2.1287   -0.0915    1.8538 H         1 <0>         0.0743
     46 H18        -2.9114    1.4922    2.0718 H         1 <0>         0.0808
     47 H19         0.0021   -0.0041    0.0020 H         1 <0>         0.1329
     48 H20         2.1175    1.2513   -0.0107 H         1 <0>         0.1364
     49 H21        -2.1971    3.6508    0.0417 H         1 <0>         0.1345
     50 H22         3.9468    3.8210   -1.0440 H         1 <0>         0.0738
     51 H23         4.1171    4.6903    0.4998 H         1 <0>         0.0909
     52 H24         3.8061    2.9377    0.4949 H         1 <0>         0.0850
     53 H25        -0.9783    6.5618    1.0713 H         1 <0>         0.0718
     54 H26        -0.3307    7.1632   -0.4738 H         1 <0>         0.0914
     55 H27        -1.6555    5.9744   -0.4665 H         1 <0>         0.0849
     56 H28        -1.6644   -0.8099   -0.4368 H         1 <0>         0.3754
     57 N3         -5.6857   -3.0877    6.7380 N.4       1 <0>        -0.5113
     58 H29        -6.0463   -3.7031    5.9995 H         1 <0>         0.4296
     59 H30        -4.6594   -3.1195    6.7392 H         1 <0>         0.4289
@<TRIPOS>BOND
     1    1    2 1
     2    1   30 1
     3    1   31 1
     4    1   32 1
     5    2    3 1
     6    2    4 1
     7    2   57 1
     8    3   33 1
     9    3   34 1
    10    3   35 1
    11    4    5 1
    12    4   36 1
    13    4   37 1
    14    5   38 1
    15    6    7 1
    16    6   39 1
    17    6   40 1
    18    6   57 1
    19    7   12 ar
    20    7    8 ar
    21    8    9 ar
    22    8   41 1
    23    9   10 ar
    24    9   42 1
    25   10   11 ar
    26   10   13 1
    27   11   12 ar
    28   11   43 1
    29   12   44 1
    30   13   14 1
    31   14   15 1
    32   14   45 1
    33   14   46 1
    34   15   16 1
    35   15   17 1
    36   15   29 1
    37   17   22 ar
    38   17   18 ar
    39   18   19 ar
    40   18   47 1
    41   19   20 ar
    42   19   48 1
    43   20   26 1
    44   20   21 ar
    45   21   22 ar
    46   21   23 1
    47   22   49 1
    48   23   24 am
    49   23   28 1
    50   24   25 2
    51   24   26 am
    52   26   27 1
    53   27   50 1
    54   27   51 1
    55   27   52 1
    56   28   53 1
    57   28   54 1
    58   28   55 1
    59   29   56 1
    60   57   58 1
    61   57   59 1
@<TRIPOS>MOLECULE
ZINC37261835
   33    33     0     0     0
SMALL
USER_CHARGES

@<TRIPOS>ATOM
      1 C1         -0.0173    1.4248    0.0099 C.3       1 <0>         0.0326
      2 O1          0.0021   -0.0041    0.0020 O.3       1 <0>        -0.3172
      3 C2          0.6260   -0.6185    1.0417 C.ar      1 <0>         0.1920
      4 C3          1.9806   -0.9102    0.9654 C.ar      1 <0>        -0.1169
      5 C4          2.6126   -1.5347    2.0244 C.ar      1 <0>        -0.0377
      6 C5          1.8963   -1.8691    3.1588 C.ar      1 <0>        -0.1684
      7 C6          0.5465   -1.5801    3.2374 C.ar      1 <0>        -0.0376
      8 C7         -0.0893   -0.9501    2.1838 C.ar      1 <0>        -0.1169
      9 Br1        -1.9337   -0.5482    2.2954 Br        1 <0>         0.0090
     10 C8          2.5880   -2.5502    4.3114 C.3       1 <0>         0.0451
     11 N1          3.1098   -1.5364    5.2376 N.4       1 <0>        -0.5042
     12 C9          3.7840   -2.2004    6.3612 C.3       1 <0>         0.0059
     13 C10         4.3275   -1.1445    7.3259 C.3       1 <0>        -0.6890
     14 S1          5.1600   -1.9644    8.7134 S.o2      1 <0>         2.6337
     15 O2          4.2118   -2.6595    9.5115 O.2       1 <0>        -0.9367
     16 O3          6.3408   -2.6132    8.2614 O.2       1 <0>        -0.9367
     17 N2          5.6986   -0.7295    9.6764 N.pl3     1 <0>        -1.2431
     18 Br2         2.9608   -0.4544   -0.5861 Br        1 <0>         0.0090
     19 H1          1.0053    1.8021    0.0021 H         1 <0>         0.0572
     20 H2         -0.5445    1.7859   -0.8732 H         1 <0>         0.1153
     21 H3         -0.5275    1.7763    0.9067 H         1 <0>         0.0572
     22 H4          3.6668   -1.7619    1.9656 H         1 <0>         0.1545
     23 H5         -0.0106   -1.8427    4.1245 H         1 <0>         0.1545
     24 H6          1.8772   -3.1894    4.8352 H         1 <0>         0.1504
     25 H7          3.4119   -3.1560    3.9341 H         1 <0>         0.1504
     26 H8          3.7677   -0.9447    4.7528 H         1 <0>         0.4317
     27 H9          3.0732   -2.8396    6.8850 H         1 <0>         0.1524
     28 H10         4.6079   -2.8062    5.9839 H         1 <0>         0.1524
     29 H11         5.0382   -0.5053    6.8021 H         1 <0>         0.1605
     30 H12         3.5036   -0.5387    7.7032 H         1 <0>         0.1605
     31 H13         5.5300    0.1916    9.4234 H         1 <0>         0.4164
     32 H14         6.1826   -0.9274   10.4934 H         1 <0>         0.4320
     33 H15         2.3471   -0.9757    5.5869 H         1 <0>         0.4317
@<TRIPOS>BOND
     1    1    2 1
     2    1   19 1
     3    1   20 1
     4    1   21 1
     5    2    3 1
     6    3    8 ar
     7    3    4 ar
     8    4    5 ar
     9    4   18 1
    10    5    6 ar
    11    5   22 1
    12    6    7 ar
    13    6   10 1
    14    7    8 ar
    15    7   23 1
    16    8    9 1
    17   10   11 1
    18   10   24 1
    19   10   25 1
    20   11   12 1
    21   11   26 1
    22   11   33 1
    23   12   13 1
    24   12   27 1
    25   12   28 1
    26   13   14 1
    27   13   29 1
    28   13   30 1
    29   14   15 2
    30   14   16 2
    31   14   17 1
    32   17   31 1
    33   17   32 1
@<TRIPOS>MOLECULE
ZINC39755811
   51    54     0     0     0
SMALL
USER_CHARGES

@<TRIPOS>ATOM
      1 C1          1.2991   -1.4764    2.3526 C.3       1 <0>        -0.1534
      2 C2          0.5766   -1.3133    1.0138 C.3       1 <0>         0.0576
      3 O1         -0.7244   -1.8980    1.1003 O.3       1 <0>        -0.3440
      4 C3         -1.4980   -1.8388   -0.0051 C.2       1 <0>         0.5320
      5 O2         -1.0768   -1.3041   -1.0151 O.2       1 <0>        -0.4801
      6 C4         -2.7881   -2.3938    0.0101 C.2       1 <0>        -0.3337
      7 C5         -2.9163   -3.7380   -0.0883 C.2       1 <0>         0.4065
      8 O3         -4.1263   -4.3437   -0.0625 O.3       1 <0>        -0.2019
      9 C6         -5.1960   -3.5473   -0.1270 C.2       1 <0>         0.3629
     10 C7         -6.3248   -3.8445   -0.8749 C.ar      1 <0>        -0.1876
     11 C8         -6.4237   -5.0459   -1.6072 C.ar      1 <0>         0.0158
     12 C9         -7.5523   -5.3074   -2.3209 C.ar      1 <0>        -0.1592
     13 C10        -8.6159   -4.4103   -2.3471 C.ar      1 <0>         0.0786
     14 C11        -8.5775   -3.2312   -1.6654 C.ar      1 <0>        -0.2084
     15 C12        -7.4440   -2.8944   -0.9074 C.ar      1 <0>         0.3434
     16 N1         -7.4031   -1.7323   -0.2444 N.am      1 <0>        -0.6030
     17 C13        -6.3888   -1.3484    0.5051 C.2       1 <0>         0.5294
     18 O4         -6.4244   -0.2730    1.0743 O.2       1 <0>        -0.4028
     19 C14        -5.1810   -2.2458    0.6569 C.3       1 <0>        -0.1510
     20 H1         -5.0410   -2.4722    1.7139 H         1 <0>         0.1933
     21 C15        -3.9676   -1.4698    0.1409 C.3       1 <0>         0.0552
     22 H2         -4.2030   -1.0422   -0.8337 H         1 <0>         0.1120
     23 C16        -3.6316   -0.3616    1.1053 C.ar      1 <0>        -0.0777
     24 C17        -3.2891   -0.6632    2.4103 C.ar      1 <0>        -0.1137
     25 C18        -2.9800    0.3498    3.2988 C.ar      1 <0>        -0.1009
     26 C19        -3.0126    1.6709    2.8819 C.ar      1 <0>         0.0970
     27 C20        -3.3568    1.9744    1.5682 C.ar      1 <0>         0.1101
     28 C21        -3.6609    0.9539    0.6815 C.ar      1 <0>        -0.1632
     29 O5         -3.3902    3.2694    1.1543 O.3       1 <0>        -0.3015
     30 C22        -3.7520    3.5060   -0.2077 C.3       1 <0>         0.0235
     31 O6         -2.7092    2.6686    3.7548 O.3       1 <0>        -0.4835
     32 N2         -1.7903   -4.5061   -0.2179 N.pl3     1 <0>        -0.8103
     33 H3          2.2915   -1.0303    2.2866 H         1 <0>         0.0846
     34 H4          0.7284   -0.9785    3.1365 H         1 <0>         0.0688
     35 H5          1.3922   -2.5365    2.5885 H         1 <0>         0.0677
     36 H6          0.4835   -0.2532    0.7780 H         1 <0>         0.0709
     37 H7          1.1473   -1.8112    0.2300 H         1 <0>         0.0706
     38 H8         -5.6082   -5.7540   -1.6018 H         1 <0>         0.1686
     39 H9         -7.6240   -6.2295   -2.8785 H         1 <0>         0.1655
     40 H10        -9.4955   -4.6552   -2.9239 H         1 <0>         0.1696
     41 H11        -9.4191   -2.5556   -1.7076 H         1 <0>         0.1745
     42 H12        -3.2633   -1.6924    2.7365 H         1 <0>         0.1277
     43 H13        -2.7134    0.1116    4.3179 H         1 <0>         0.1431
     44 H14        -3.9247    1.1866   -0.3396 H         1 <0>         0.1314
     45 H15        -3.7398    4.5778   -0.4060 H         1 <0>         0.1075
     46 H16        -3.0399    3.0068   -0.8648 H         1 <0>         0.0566
     47 H17        -4.7524    3.1140   -0.3913 H         1 <0>         0.0554
     48 H18        -1.7715    2.9041    3.7725 H         1 <0>         0.3936
     49 H19        -0.9136   -4.0949   -0.1614 H         1 <0>         0.4374
     50 H20        -1.8693   -5.4614   -0.3663 H         1 <0>         0.4225
     51 H21        -8.1652   -1.1370   -0.3201 H         1 <0>         0.4426
@<TRIPOS>BOND
     1    1    2 1
     2    1   33 1
     3    1   34 1
     4    1   35 1
     5    2    3 1
     6    2   36 1
     7    2   37 1
     8    3    4 1
     9    4    5 2
    10    4    6 1
    11    6   21 1
    12    6    7 2
    13    7    8 1
    14    7   32 1
    15    8    9 1
    16    9   19 1
    17    9   10 2
    18   10   15 ar
    19   10   11 ar
    20   11   12 ar
    21   11   38 1
    22   12   13 ar
    23   12   39 1
    24   13   14 ar
    25   13   40 1
    26   14   15 ar
    27   14   41 1
    28   15   16 2
    29   16   17 am
    30   16   51 1
    31   17   18 2
    32   17   19 1
    33   19   20 1
    34   19   21 1
    35   21   22 1
    36   21   23 1
    37   23   28 ar
    38   23   24 ar
    39   24   25 ar
    40   24   42 1
    41   25   26 ar
    42   25   43 1
    43   26   27 ar
    44   26   31 1
    45   27   28 ar
    46   27   29 1
    47   28   44 1
    48   29   30 1
    49   30   45 1
    50   30   46 1
    51   30   47 1
    52   31   48 1
    53   32   49 1
    54   32   50 1
@<TRIPOS>MOLECULE
ZINC50441535
   34    34     0     0     0
SMALL
USER_CHARGES

@<TRIPOS>ATOM
      1 C1         -0.0187    1.5258    0.0104 C.3       1 <0>        -0.1780
      2 C2          0.0021   -0.0041    0.0020 C.3       1 <0>         0.0509
      3 C3          0.7421   -0.5109    1.2415 C.3       1 <0>         0.0452
      4 O1          2.0827   -0.0163    1.2314 O.3       1 <0>        -0.3237
      5 C4          2.8813   -0.3765    2.2708 C.ar      1 <0>         0.1874
      6 C5          2.9310    0.4089    3.4139 C.ar      1 <0>        -0.1065
      7 C6          3.7437    0.0400    4.4696 C.ar      1 <0>         0.0040
      8 C7          4.5067   -1.1100    4.3872 C.ar      1 <0>        -0.0288
      9 C8          4.4591   -1.8944    3.2497 C.ar      1 <0>         0.0029
     10 C9          3.6439   -1.5333    2.1932 C.ar      1 <0>        -0.1094
     11 Br1         3.5734   -2.6109    0.6409 Br        1 <0>         0.0065
     12 N1          5.3766   -1.5019    5.5189 N.pl3     1 <0>         0.0243
     13 O2          5.4194   -0.8167    6.5140 O.2       1 <0>        -0.1254
     14 O3          6.0443   -2.5073    5.4481 O.3       1 <0>        -0.1275
     15 Br2         1.8887    1.9827    3.5269 Br        1 <0>         0.0265
     16 C10        -1.4117   -0.5257    0.0127 C.2       1 <0>         0.5174
     17 O4         -1.9390   -0.8271    1.0625 O.2       1 <0>        -0.4692
     18 N2         -2.0902   -0.6573   -1.1443 N.am      1 <0>        -0.8425
     19 N3          0.6897   -0.4778   -1.2066 N.4       1 <0>        -0.5014
     20 C11         0.7096   -1.9467   -1.2147 C.3       1 <0>        -0.0744
     21 H1          1.0039    1.9031    0.0027 H         1 <0>         0.1112
     22 H2         -0.5459    1.8868   -0.8726 H         1 <0>         0.0964
     23 H3         -0.5289    1.8773    0.9072 H         1 <0>         0.1185
     24 H4          0.2319   -0.1594    2.1383 H         1 <0>         0.1265
     25 H5          0.7568   -1.6008    1.2356 H         1 <0>         0.0975
     26 H6          3.7828    0.6509    5.3594 H         1 <0>         0.1831
     27 H7          5.0562   -2.7922    3.1880 H         1 <0>         0.1824
     28 H8         -1.6686   -0.4162   -1.9840 H         1 <0>         0.3989
     29 H9         -3.0003   -0.9930   -1.1375 H         1 <0>         0.4319
     30 H10         0.2017   -0.1436   -2.0240 H         1 <0>         0.4300
     31 H11        -0.3130   -2.3239   -1.2069 H         1 <0>         0.1306
     32 H12         1.2198   -2.2982   -2.1115 H         1 <0>         0.1451
     33 H13         1.2368   -2.3077   -0.3316 H         1 <0>         0.1246
     34 H14         1.6363   -0.1286   -1.2138 H         1 <0>         0.4451
@<TRIPOS>BOND
     1    1    2 1
     2    1   21 1
     3    1   22 1
     4    1   23 1
     5    2    3 1
     6    2   16 1
     7    2   19 1
     8    3    4 1
     9    3   24 1
    10    3   25 1
    11    4    5 1
    12    5   10 ar
    13    5    6 ar
    14    6    7 ar
    15    6   15 1
    16    7    8 ar
    17    7   26 1
    18    8    9 ar
    19    8   12 1
    20    9   10 ar
    21    9   27 1
    22   10   11 1
    23   12   13 2
    24   12   14 1
    25   16   17 2
    26   16   18 am
    27   18   28 1
    28   18   29 1
    29   19   20 1
    30   19   30 1
    31   19   34 1
    32   20   31 1
    33   20   32 1
    34   20   33 1
@<TRIPOS>MOLECULE
ZINC65430279
   55    58     0     0     0
SMALL
USER_CHARGES

@<TRIPOS>ATOM
      1 C1         -0.0127    1.0858    0.0080 C.3       1 <0>        -0.1053
      2 C2         -0.7416    1.5850   -1.2129 C.2       1 <0>         0.0773
      3 N1         -2.0826    1.8399   -1.3153 N.pl3     1 <0>        -0.5095
      4 C3         -2.3126    2.2686   -2.5750 C.cat     1 <0>         0.3061
      5 N2         -1.1814    2.2821   -3.2255 N.pl3     1 <0>        -0.4719
      6 C4         -0.1979    1.8718   -2.4111 C.2       1 <0>         0.0349
      7 H1         -2.7440    1.7325   -0.6140 H         1 <0>         0.4660
      8 C5          1.2596    1.7494   -2.7743 C.3       1 <0>         0.0711
      9 H2          1.8300    1.3894   -1.9182 H         1 <0>         0.1262
     10 C6          1.4294    0.7913   -3.9634 C.3       1 <0>        -0.1203
     11 C7          2.6952    1.0508   -4.7138 C.2       1 <0>         0.5288
     12 O1          3.0898    0.1506   -5.4242 O.2       1 <0>        -0.5432
     13 N3          3.4425    2.1560   -4.6949 N.am      1 <0>        -0.6963
     14 C8          3.2242    3.2273   -3.7325 C.3       1 <0>         0.3261
     15 H3          3.9280    3.1434   -2.9044 H         1 <0>         0.0824
     16 C9          1.7945    3.0840   -3.2301 C.2       1 <0>        -0.3429
     17 C10         1.2387    4.2573   -3.3172 C.2       1 <0>         0.1688
     18 N4          2.0867    5.1732   -3.9202 N.pl3     1 <0>        -0.5722
     19 N5          3.2752    4.5721   -4.3131 N.3       1 <0>        -0.2782
     20 C11         4.4419    5.3151   -3.8185 C.3       1 <0>         0.0748
     21 C12         4.5296    6.6422   -4.5272 C.ar      1 <0>        -0.1351
     22 C13         5.4052    6.8034   -5.5849 C.ar      1 <0>        -0.0468
     23 C14         5.4894    8.0184   -6.2382 C.ar      1 <0>        -0.1968
     24 C15         4.6952    9.0813   -5.8346 C.ar      1 <0>         0.1329
     25 C16         3.8135    8.9233   -4.7722 C.ar      1 <0>         0.0487
     26 C17         3.7281    7.6981   -4.1212 C.ar      1 <0>         0.1137
     27 O2          2.8631    7.5368   -3.0843 O.3       1 <0>        -0.3393
     28 C18         3.3557    7.8344   -1.7763 C.3       1 <0>         0.0396
     29 O3          3.0325    9.9639   -4.3731 O.3       1 <0>        -0.3179
     30 C19         1.7508   10.0880   -4.9928 C.3       1 <0>         0.0393
     31 O4          4.7794   10.2768   -6.4774 O.3       1 <0>        -0.3019
     32 C20         5.7075   10.3672   -7.5602 C.3       1 <0>         0.0216
     33 H4          0.0021   -0.0041    0.0020 H         1 <0>         0.1063
     34 H5          1.0099    1.4631    0.0003 H         1 <0>         0.1087
     35 H6         -0.5229    1.4373    0.9048 H         1 <0>         0.0949
     36 H7         -3.2736    2.5529   -2.9775 H         1 <0>         0.2674
     37 H8          1.4402   -0.2341   -3.5938 H         1 <0>         0.1156
     38 H9          0.5842    0.9136   -4.6408 H         1 <0>         0.0959
     39 H10         4.1564    2.2492   -5.3449 H         1 <0>         0.4072
     40 H11         0.2439    4.4878   -2.9654 H         1 <0>         0.1492
     41 H12         1.8804    6.1123   -4.0487 H         1 <0>         0.4399
     42 H13         4.3387    5.4819   -2.7463 H         1 <0>         0.0650
     43 H14         5.3474    4.7398   -4.0112 H         1 <0>         0.1058
     44 H15         6.0252    5.9777   -5.9014 H         1 <0>         0.1388
     45 H16         6.1748    8.1405   -7.0638 H         1 <0>         0.1423
     46 H17         2.5668    7.6643   -1.0435 H         1 <0>         0.0956
     47 H18         4.2050    7.1889   -1.5523 H         1 <0>         0.0470
     48 H19         3.6710    8.8770   -1.7353 H         1 <0>         0.0593
     49 H20         1.1645    9.1901   -4.7978 H         1 <0>         0.0435
     50 H21         1.2326   10.9559   -4.5851 H         1 <0>         0.0963
     51 H22         1.8777   10.2126   -6.0682 H         1 <0>         0.0477
     52 H23         6.7133   10.1596   -7.1950 H         1 <0>         0.0611
     53 H24         5.4423    9.6400   -8.3277 H         1 <0>         0.0596
     54 H25         5.6748   11.3709   -7.9840 H         1 <0>         0.1077
     55 H26        -1.0691    2.5499   -4.1510 H         1 <0>         0.4644
@<TRIPOS>BOND
     1    1   33 1
     2    1   34 1
     3    1   35 1
     4    1    2 1
     5    2    3 1
     6    2    6 2
     7    3    4 1
     8    3    7 1
     9    4   36 1
    10    4    5 2
    11    5    6 1
    12    5   55 1
    13    6    8 1
    14    8    9 1
    15    8   16 1
    16    8   10 1
    17   10   11 1
    18   10   37 1
    19   10   38 1
    20   11   12 2
    21   11   13 am
    22   13   14 1
    23   13   39 1
    24   14   15 1
    25   14   19 1
    26   14   16 1
    27   16   17 2
    28   17   18 1
    29   17   40 1
    30   18   19 1
    31   18   41 1
    32   19   20 1
    33   20   21 1
    34   20   42 1
    35   20   43 1
    36   21   26 ar
    37   21   22 ar
    38   22   23 ar
    39   22   44 1
    40   23   24 ar
    41   23   45 1
    42   24   25 ar
    43   24   31 1
    44   25   26 ar
    45   25   29 1
    46   26   27 1
    47   27   28 1
    48   28   46 1
    49   28   47 1
    50   28   48 1
    51   29   30 1
    52   30   49 1
    53   30   50 1
    54   30   51 1
    55   31   32 1
    56   32   52 1
    57   32   53 1
    58   32   54 1
@<TRIPOS>MOLECULE
ZINC12113684
   56    59     0     0     0
SMALL
USER_CHARGES
2-[4-[(4-oxo-3,5,6,7-tetrahydrocyclopenta[d]pyrimidin-2-yl)amino]-1-piperidyl]-N-[2-(trifluoromethyl)phenyl]acetamide
@<TRIPOS>ATOM
      1 C1         10.4412    3.1632   -6.8135 C.ar      1 <0>        -0.1157
      2 C2          9.1084    3.3394   -6.4891 C.ar      1 <0>        -0.0662
      3 C3          8.7122    3.3379   -5.1663 C.ar      1 <0>        -0.1166
      4 C4          9.6552    3.1693   -4.1606 C.ar      1 <0>         0.1715
      5 C5         10.9925    2.9922   -4.4897 C.ar      1 <0>        -0.2001
      6 C6         11.3817    2.9898   -5.8150 C.ar      1 <0>        -0.0510
      7 C7         12.0182    2.8021   -3.4020 C.3       1 <0>         0.5082
      8 F1         13.2839    2.6451   -3.9768 F         1 <0>        -0.1644
      9 F2         12.0223    3.9224   -2.5641 F         1 <0>        -0.1782
     10 F3         11.7004    1.6625   -2.6553 F         1 <0>        -0.1770
     11 N1          9.2577    3.1723   -2.8190 N.am      1 <0>        -0.6526
     12 C8          8.0653    2.6512   -2.4684 C.2       1 <0>         0.5065
     13 O1          7.3019    2.2542   -3.3232 O.2       1 <0>        -0.5043
     14 C9          7.6804    2.5617   -1.0141 C.3       1 <0>        -0.0257
     15 C10         6.0327    1.6404    0.5014 C.3       1 <0>         0.0056
     16 C11         4.7018    0.8879    0.5686 C.3       1 <0>        -0.1598
     17 C12         3.5966    1.7605   -0.0328 C.3       1 <0>         0.1558
     18 C13         3.9683    2.1225   -1.4734 C.3       1 <0>        -0.1580
     19 C14         5.3212    2.8379   -1.4816 C.3       1 <0>        -0.0063
     20 N2          2.3311    1.0227   -0.0243 N.pl3     1 <0>        -0.7037
     21 C15         1.1426    1.7021   -0.0179 C.2       1 <0>         0.6320
     22 N3         -0.0256    1.0050   -0.0101 N.am      1 <0>        -0.6486
     23 H1         -0.0147    0.0350   -0.0093 H         1 <0>         0.4151
     24 C16        -1.1999    1.6704   -0.0091 C.2       1 <0>         0.5515
     25 O2         -2.2578    1.0626   -0.0070 O.2       1 <0>        -0.5237
     26 C17        -1.1824    3.0774   -0.0058 C.2       1 <0>        -0.3025
     27 C18         0.0176    3.7246   -0.0140 C.2       1 <0>         0.1988
     28 N4          1.1504    3.0190   -0.0199 N.2       1 <0>        -0.5834
     29 C19        -0.2036    5.2222   -0.0147 C.3       1 <0>        -0.0688
     30 C20        -1.6748    5.4118   -0.4432 C.3       1 <0>        -0.1196
     31 C21        -2.3157    4.0783   -0.0012 C.3       1 <0>        -0.0521
     32 H2         10.7480    3.1606   -7.8490 H         1 <0>         0.1457
     33 H3          8.3760    3.4739   -7.2714 H         1 <0>         0.1438
     34 H4          7.6706    3.4712   -4.9138 H         1 <0>         0.1501
     35 H5         12.4217    2.8520   -6.0716 H         1 <0>         0.1504
     36 H6          9.8404    3.5493   -2.1414 H         1 <0>         0.4218
     37 H7          7.6692    3.5611   -0.5791 H         1 <0>         0.1687
     38 H8          8.4043    1.9428   -0.4841 H         1 <0>         0.1662
     39 H9          5.9581    2.5624    1.0780 H         1 <0>         0.1407
     40 H10         6.8242    1.0161    0.9158 H         1 <0>         0.1390
     41 H11         4.4629    0.6632    1.6081 H         1 <0>         0.1246
     42 H12         4.7800   -0.0410    0.0036 H         1 <0>         0.0968
     43 H13         3.4910    2.6717    0.5561 H         1 <0>         0.1182
     44 H14         4.0346    1.2137   -2.0714 H         1 <0>         0.0909
     45 H15         3.2057    2.7794   -1.8919 H         1 <0>         0.1220
     46 H16         5.2500    3.7543   -0.8957 H         1 <0>         0.1354
     47 H17         5.5959    3.0832   -2.5075 H         1 <0>         0.1444
     48 H18         2.3352    0.0527   -0.0232 H         1 <0>         0.4175
     49 H19        -0.0451    5.6286    0.9842 H         1 <0>         0.0963
     50 H20         0.4638    5.7030   -0.7299 H         1 <0>         0.0875
     51 H21        -1.7512    5.5404   -1.5229 H         1 <0>         0.0779
     52 H22        -2.1270    6.2530    0.0821 H         1 <0>         0.0880
     53 H23        -3.0894    3.7775   -0.7077 H         1 <0>         0.0771
     54 H24        -2.7345    4.1714    1.0008 H         1 <0>         0.0789
     55 N5          6.3457    1.9362   -0.9128 N.4       1 <0>        -0.3843
     56 H25         6.3480    1.0577   -1.4441 H         1 <0>         0.4352
@<TRIPOS>BOND
     1    1    6 ar
     2    1    2 ar
     3    1   32 1
     4    2    3 ar
     5    2   33 1
     6    3    4 ar
     7    3   34 1
     8    4    5 ar
     9    4   11 1
    10    5    6 ar
    11    5    7 1
    12    6   35 1
    13    7    8 1
    14    7    9 1
    15    7   10 1
    16   11   12 am
    17   11   36 1
    18   12   13 2
    19   12   14 1
    20   14   37 1
    21   14   38 1
    22   14   55 1
    23   15   16 1
    24   15   39 1
    25   15   40 1
    26   15   55 1
    27   16   17 1
    28   16   41 1
    29   16   42 1
    30   17   18 1
    31   17   20 1
    32   17   43 1
    33   18   19 1
    34   18   44 1
    35   18   45 1
    36   19   46 1
    37   19   47 1
    38   19   55 1
    39   20   21 1
    40   20   48 1
    41   21   28 2
    42   21   22 1
    43   22   23 1
    44   22   24 am
    45   24   25 2
    46   24   26 1
    47   26   31 1
    48   26   27 2
    49   27   28 1
    50   27   29 1
    51   29   30 1
    52   29   49 1
    53   29   50 1
    54   30   31 1
    55   30   51 1
    56   30   52 1
    57   31   53 1
    58   31   54 1
    59   55   56 1
@<TRIPOS>MOLECULE
ZINC20589094
   57    60     0     0     0
SMALL
USER_CHARGES

@<TRIPOS>ATOM
      1 C1         -0.0167    1.3830    0.0096 C.ar      1 <0>        -0.1328
      2 C2          1.1706    2.0890    0.0021 C.ar      1 <0>        -0.0671
      3 C3          2.3781    1.4136   -0.0135 C.ar      1 <0>        -0.0709
      4 C4          2.3989    0.0301   -0.0211 C.ar      1 <0>        -0.0688
      5 C5          1.2137   -0.6795   -0.0136 C.ar      1 <0>        -0.1999
      6 C6          0.0021   -0.0041    0.0020 C.ar      1 <0>         0.1313
      7 O1         -1.1651   -0.7005    0.0099 O.3       1 <0>        -0.2861
      8 C7         -1.0700   -2.1263    0.0013 C.3       1 <0>         0.0407
      9 C8         -2.4541   -2.7222    0.0118 C.2       1 <0>         0.5161
     10 O2         -3.4263   -1.9973    0.0254 O.2       1 <0>        -0.5024
     11 N1         -2.6115   -4.0607    0.0062 N.am      1 <0>        -0.7327
     12 C9         -3.9571   -4.6401    0.0165 C.3       1 <0>         0.1344
     13 C10        -3.8552   -6.1666    0.0073 C.3       1 <0>        -0.1533
     14 C11        -5.2393   -6.7626    0.0178 C.2       1 <0>         0.5230
     15 O3         -6.2115   -6.0377    0.0314 O.2       1 <0>        -0.5171
     16 N2         -5.3968   -8.1011    0.0122 N.am      1 <0>        -0.6214
     17 C12        -4.2287   -8.9925    0.0019 C.3       1 <0>         0.1042
     18 C13        -4.3514   -9.9789    1.1677 C.3       1 <0>        -0.1271
     19 C14        -5.6964  -10.7009    1.0818 C.3       1 <0>         0.1882
     20 C15        -6.8363   -9.6867    1.1818 C.3       1 <0>        -0.1648
     21 C16        -6.7397   -8.6972    0.0223 C.3       1 <0>         0.1100
     22 C17        -5.8075  -11.7005    2.2046 C.2       1 <0>         0.0294
     23 C18        -6.2759  -12.9581    2.0337 C.2       1 <0>         0.0766
     24 N3         -6.2320  -13.5705    3.2452 N.pl3     1 <0>        -0.4998
     25 H1         -6.5022  -14.4812    3.4418 H         1 <0>         0.4667
     26 C19        -5.7387  -12.6685    4.1263 C.cat     1 <0>         0.2967
     27 N4         -5.4886  -11.5525    3.4911 N.pl3     1 <0>        -0.4604
     28 C20        -6.7436  -13.4971    0.7064 C.3       1 <0>        -0.0564
     29 C21        -6.9639  -12.3045   -0.2354 C.3       1 <0>         0.0482
     30 N5         -5.7885  -11.4224   -0.1970 N.3       1 <0>        -0.6740
     31 Cl1         3.8689    2.3031   -0.0241 Cl        1 <0>        -0.0646
     32 H2         -0.9590    1.9105    0.0260 H         1 <0>         0.1442
     33 H3          1.1564    3.1689    0.0080 H         1 <0>         0.1440
     34 H4          3.3424   -0.4953   -0.0333 H         1 <0>         0.1381
     35 H5          1.2303   -1.7593   -0.0203 H         1 <0>         0.1360
     36 H6         -0.5419   -2.4498   -0.8957 H         1 <0>         0.0969
     37 H7         -0.5243   -2.4593    0.8841 H         1 <0>         0.0961
     38 H8         -1.8340   -4.6405   -0.0046 H         1 <0>         0.4015
     39 H9         -4.4851   -4.3166    0.9135 H         1 <0>         0.0800
     40 H10        -4.5028   -4.3070   -0.8664 H         1 <0>         0.0818
     41 H11        -3.3272   -6.4901   -0.8898 H         1 <0>         0.1066
     42 H12        -3.3095   -6.4997    0.8901 H         1 <0>         0.1027
     43 H13        -4.1961   -9.5413   -0.9393 H         1 <0>         0.0863
     44 H14        -3.3186   -8.4036    0.1157 H         1 <0>         0.1007
     45 H15        -3.5431  -10.7082    1.1135 H         1 <0>         0.0984
     46 H16        -4.2894   -9.4365    2.1111 H         1 <0>         0.0750
     47 H17        -7.7922  -10.2086    1.1375 H         1 <0>         0.0896
     48 H18        -6.7602   -9.1460    2.1251 H         1 <0>         0.0804
     49 H19        -7.4865   -7.9135    0.1496 H         1 <0>         0.1092
     50 H20        -6.9138   -9.2217   -0.9172 H         1 <0>         0.0725
     51 H21        -5.5789  -12.8416    5.1802 H         1 <0>         0.2692
     52 H22        -5.9858  -14.1608    0.2901 H         1 <0>         0.1167
     53 H23        -7.6791  -14.0408    0.8381 H         1 <0>         0.1082
     54 H24        -7.1119  -12.6677   -1.2524 H         1 <0>         0.1103
     55 H25        -7.8458  -11.7487    0.0830 H         1 <0>         0.0560
     56 H26        -5.7930  -10.7800   -0.9751 H         1 <0>         0.3706
     57 H27        -5.1288  -10.7458    3.8921 H         1 <0>         0.4631
@<TRIPOS>BOND
     1    1    6 ar
     2    1    2 ar
     3    1   32 1
     4    2    3 ar
     5    2   33 1
     6    3    4 ar
     7    3   31 1
     8    4    5 ar
     9    4   34 1
    10    5    6 ar
    11    5   35 1
    12    6    7 1
    13    7    8 1
    14    8    9 1
    15    8   36 1
    16    8   37 1
    17    9   10 2
    18    9   11 am
    19   11   12 1
    20   11   38 1
    21   12   13 1
    22   12   39 1
    23   12   40 1
    24   13   14 1
    25   13   41 1
    26   13   42 1
    27   14   15 2
    28   14   16 am
    29   16   21 1
    30   16   17 1
    31   17   18 1
    32   17   43 1
    33   17   44 1
    34   18   19 1
    35   18   45 1
    36   18   46 1
    37   19   30 1
    38   19   20 1
    39   19   22 1
    40   20   21 1
    41   20   47 1
    42   20   48 1
    43   21   49 1
    44   21   50 1
    45   22   27 1
    46   22   23 2
    47   23   24 1
    48   23   28 1
    49   24   25 1
    50   24   26 1
    51   26   27 2
    52   26   51 1
    53   27   57 1
    54   28   29 1
    55   28   52 1
    56   28   53 1
    57   29   30 1
    58   29   54 1
    59   29   55 1
    60   30   56 1
@<TRIPOS>MOLECULE
ZINC36628748
   56    58     0     0     0
SMALL
USER_CHARGES

@<TRIPOS>ATOM
      1 C1          2.5979    0.2977   -0.8742 C.3       1 <0>        -0.1558
      2 C2          2.2284   -1.1779   -0.7100 C.3       1 <0>        -0.1528
      3 C3          2.8527   -1.9896   -1.8468 C.3       1 <0>        -0.0095
      4 N1          2.4979   -3.4064   -1.6891 N.4       1 <0>        -0.3852
      5 C4          3.1971   -4.2017   -2.7069 C.3       1 <0>        -0.0018
      6 C5          3.0948   -5.6940   -2.3739 C.3       1 <0>        -0.0865
      7 C6          1.6257   -6.0226   -2.1479 C.2       1 <0>        -0.0382
      8 C7          0.7351   -5.0311   -1.9169 C.2       1 <0>        -0.3349
      9 S1         -0.8133   -5.8590   -1.7199 S.3       1 <0>         0.3918
     10 C8         -0.3164   -7.4500   -1.9294 C.2       1 <0>         0.0629
     11 C9          1.0490   -7.3523   -2.1540 C.2       1 <0>        -0.2407
     12 C10         1.8730   -8.5424   -2.3870 C.2       1 <0>         0.5764
     13 O1          2.3909   -9.1175   -1.4476 O.2       1 <0>        -0.5216
     14 N2          2.0569   -8.9997   -3.6414 N.am      1 <0>        -0.8448
     15 N3         -1.0931   -8.5979   -1.8873 N.am      1 <0>        -0.6150
     16 C11        -2.4177   -8.5073   -1.6554 C.2       1 <0>         0.4882
     17 O2         -2.9303   -7.4217   -1.4833 O.2       1 <0>        -0.4670
     18 C12        -3.2618   -9.7548   -1.6097 C.3       1 <0>         0.1116
     19 C13        -3.1707  -10.4817   -2.9530 C.3       1 <0>        -0.1442
     20 C14        -2.7537  -10.6739   -0.4970 C.3       1 <0>        -0.2025
     21 O3         -4.6218   -9.4006   -1.3511 O.3       1 <0>        -0.2739
     22 C15        -4.8810   -8.7615   -0.1798 C.ar      1 <0>         0.1348
     23 C16        -3.8355   -8.3673    0.6424 C.ar      1 <0>        -0.1812
     24 C17        -4.1009   -7.7180    1.8325 C.ar      1 <0>        -0.0745
     25 C18        -5.4085   -7.4612    2.2048 C.ar      1 <0>        -0.0654
     26 C19        -6.4527   -7.8540    1.3864 C.ar      1 <0>        -0.0691
     27 C20        -6.1910   -8.4977    0.1924 C.ar      1 <0>        -0.1296
     28 Cl1        -5.7395   -6.6456    3.7011 Cl        1 <0>        -0.0639
     29 C21         1.0409   -3.5682   -1.8483 C.3       1 <0>         0.1034
     30 H1          3.6821    0.4061   -0.8452 H         1 <0>         0.0672
     31 H2          2.2218    0.6622   -1.8301 H         1 <0>         0.0673
     32 H3          2.1531    0.8759   -0.0644 H         1 <0>         0.0778
     33 H4          2.6045   -1.5425    0.2459 H         1 <0>         0.0872
     34 H5          1.1442   -1.2864   -0.7390 H         1 <0>         0.0869
     35 H6          2.4766   -1.6251   -2.8027 H         1 <0>         0.1324
     36 H7          3.9369   -1.8812   -1.8177 H         1 <0>         0.1343
     37 H8          2.7461   -4.0174   -3.6819 H         1 <0>         0.1337
     38 H9          4.2467   -3.9091   -2.7357 H         1 <0>         0.1391
     39 H10         3.4813   -6.2846   -3.2045 H         1 <0>         0.1222
     40 H11         3.6644   -5.9102   -1.4701 H         1 <0>         0.1093
     41 H12         1.6442   -8.5414   -4.3901 H         1 <0>         0.4047
     42 H13         2.6021   -9.7870   -3.7956 H         1 <0>         0.4105
     43 H14        -0.6832   -9.4662   -2.0249 H         1 <0>         0.4262
     44 H15        -2.1250  -10.6778   -3.1898 H         1 <0>         0.0826
     45 H16        -3.7128  -11.4254   -2.8929 H         1 <0>         0.0966
     46 H17        -3.6094   -9.8596   -3.7331 H         1 <0>         0.0823
     47 H18        -3.0068  -10.2449    0.4725 H         1 <0>         0.0915
     48 H19        -3.2208  -11.6540   -0.5937 H         1 <0>         0.0980
     49 H20        -1.6716  -10.7776   -0.5772 H         1 <0>         0.0785
     50 H21        -2.8147   -8.5682    0.3524 H         1 <0>         0.1247
     51 H22        -3.2872   -7.4109    2.4728 H         1 <0>         0.1341
     52 H23        -7.4727   -7.6530    1.6789 H         1 <0>         0.1447
     53 H24        -7.0061   -8.7999   -0.4485 H         1 <0>         0.1442
     54 H25         0.5267   -3.1249   -0.9956 H         1 <0>         0.1428
     55 H26         0.7155   -3.0814   -2.7677 H         1 <0>         0.1431
     56 H27         2.7724   -3.7211   -0.7706 H         1 <0>         0.4270
@<TRIPOS>BOND
     1    1    2 1
     2    1   30 1
     3    1   31 1
     4    1   32 1
     5    2    3 1
     6    2   33 1
     7    2   34 1
     8    3    4 1
     9    3   35 1
    10    3   36 1
    11    4   29 1
    12    4    5 1
    13    4   56 1
    14    5    6 1
    15    5   37 1
    16    5   38 1
    17    6    7 1
    18    6   39 1
    19    6   40 1
    20    7   11 1
    21    7    8 2
    22    8    9 1
    23    8   29 1
    24    9   10 1
    25   10   11 2
    26   10   15 1
    27   11   12 1
    28   12   13 2
    29   12   14 am
    30   14   41 1
    31   14   42 1
    32   15   16 am
    33   15   43 1
    34   16   17 2
    35   16   18 1
    36   18   19 1
    37   18   20 1
    38   18   21 1
    39   19   44 1
    40   19   45 1
    41   19   46 1
    42   20   47 1
    43   20   48 1
    44   20   49 1
    45   21   22 1
    46   22   27 ar
    47   22   23 ar
    48   23   24 ar
    49   23   50 1
    50   24   25 ar
    51   24   51 1
    52   25   26 ar
    53   25   28 1
    54   26   27 ar
    55   26   52 1
    56   27   53 1
    57   29   54 1
    58   29   55 1
@<TRIPOS>MOLECULE
ZINC44714014
   66    69     0     0     0
SMALL
USER_CHARGES

@<TRIPOS>ATOM
      1 C1          2.1708    0.7796   -6.1856 C.3       1 <0>        -0.1037
      2 C2          2.6880    0.7134   -4.7717 C.2       1 <0>         0.0943
      3 C3          1.9710    0.9467   -3.6481 C.2       1 <0>        -0.2506
      4 C4          2.8232    0.7806   -2.5515 C.2       1 <0>         0.0971
      5 N1          4.0092    0.4592   -3.0006 N.2       1 <0>        -0.2804
      6 N2          3.9479    0.4052   -4.3991 N.pl3     1 <0>        -0.4685
      7 H1          4.6819    0.1871   -4.9945 H         1 <0>         0.4419
      8 C5          2.4413    0.9445   -1.1029 C.3       1 <0>        -0.0832
      9 C6          0.5122    1.3200   -3.5889 C.3       1 <0>         0.2251
     10 H2          0.1462    1.1949   -2.5698 H         1 <0>         0.0975
     11 C7          0.3413    2.7790   -4.0166 C.3       1 <0>        -0.1579
     12 N3         -0.2506    0.4540   -4.4913 N.am      1 <0>        -0.7241
     13 C8         -1.5775    0.2980   -4.3141 C.2       1 <0>         0.5142
     14 O1         -2.1401    0.8746   -3.4075 O.2       1 <0>        -0.5099
     15 C9         -2.3621   -0.5928   -5.2424 C.3       1 <0>        -0.1161
     16 H3         -1.7215   -1.3766   -5.6467 H         1 <0>         0.1156
     17 C10        -3.5682   -1.2126   -4.5016 C.3       1 <0>         0.1036
     18 N4         -4.7021   -0.3105   -4.8121 N.am      1 <0>        -0.6111
     19 C11        -4.5049    0.0530   -6.2359 C.3       1 <0>         0.1106
     20 C12        -2.9809    0.2339   -6.3821 C.3       1 <0>        -0.0730
     21 C13        -2.5132   -0.2965   -7.7339 C.3       1 <0>        -0.1339
     22 C14        -3.0946    0.5774   -8.8489 C.3       1 <0>        -0.0104
     23 N5         -2.6533    1.9653   -8.6660 N.4       1 <0>        -0.5045
     24 C15        -3.1856    2.4980   -7.4060 C.3       1 <0>        -0.0102
     25 C16        -2.6080    1.7055   -6.2300 C.3       1 <0>        -0.1481
     26 C17        -5.6898    0.0890   -3.9867 C.2       1 <0>         0.5888
     27 O2         -6.6092    0.7572   -4.4179 O.2       1 <0>        -0.4974
     28 C18        -5.6552   -0.2854   -2.5574 C.ar      1 <0>        -0.0627
     29 C19        -5.1701   -1.5361   -2.1724 C.ar      1 <0>        -0.1249
     30 C20        -5.1402   -1.8795   -0.8319 C.ar      1 <0>         0.1419
     31 C21        -5.5918   -0.9816    0.1265 C.ar      1 <0>        -0.1774
     32 C22        -6.0726    0.2575   -0.2520 C.ar      1 <0>        -0.0508
     33 C23        -6.1023    0.6133   -1.5863 C.ar      1 <0>        -0.0805
     34 Br1        -6.7544    2.3129   -2.0984 Br        1 <0>        -0.0210
     35 O3         -4.6689   -3.0969   -0.4532 O.3       1 <0>        -0.3112
     36 C24        -4.6668   -3.3851    0.9464 C.3       1 <0>         0.0221
     37 H4          1.7892   -0.1984   -6.4790 H         1 <0>         0.0805
     38 H5          1.3687    1.5153   -6.2450 H         1 <0>         0.0846
     39 H6          2.9802    1.0697   -6.8554 H         1 <0>         0.0805
     40 H7          2.1786   -0.0271   -0.6843 H         1 <0>         0.0815
     41 H8          3.2827    1.3627   -0.5504 H         1 <0>         0.0802
     42 H9          1.5864    1.6163   -1.0263 H         1 <0>         0.0796
     43 H10         0.7072    2.9041   -5.0357 H         1 <0>         0.0525
     44 H11        -0.7139    3.0490   -3.9737 H         1 <0>         0.0628
     45 H12         0.9088    3.4234   -3.3452 H         1 <0>         0.0719
     46 H13         0.1994   -0.0072   -5.2164 H         1 <0>         0.3953
     47 H14        -3.7683   -2.2169   -4.8751 H         1 <0>         0.0922
     48 H15        -3.3837   -1.2354   -3.4276 H         1 <0>         0.1071
     49 H16        -4.8558   -0.7490   -6.8854 H         1 <0>         0.0862
     50 H17        -5.0226    0.9842   -6.4660 H         1 <0>         0.0897
     51 H18        -1.4246   -0.2676   -7.7793 H         1 <0>         0.0966
     52 H19        -2.8561   -1.3234   -7.8603 H         1 <0>         0.1225
     53 H20        -2.7486    0.2107   -9.8153 H         1 <0>         0.1398
     54 H21        -4.1832    0.5348   -8.8133 H         1 <0>         0.1338
     55 H22        -1.6450    1.9960   -8.6433 H         1 <0>         0.4264
     56 H23        -2.9067    3.5472   -7.3087 H         1 <0>         0.1385
     57 H24        -4.2720    2.4097   -7.4046 H         1 <0>         0.1351
     58 H25        -3.0176    2.0899   -5.2959 H         1 <0>         0.1264
     59 H26        -1.5228    1.8068   -6.2210 H         1 <0>         0.0958
     60 H27        -4.8194   -2.2340   -2.9182 H         1 <0>         0.1439
     61 H28        -5.5674   -1.2529    1.1716 H         1 <0>         0.1450
     62 H29        -6.4227    0.9513    0.4981 H         1 <0>         0.1456
     63 H30        -4.2671   -4.3858    1.1108 H         1 <0>         0.1079
     64 H31        -4.0458   -2.6558    1.4666 H         1 <0>         0.0612
     65 H32        -5.6860   -3.3335    1.3295 H         1 <0>         0.0618
     66 H33        -2.9871    2.5271   -9.4348 H         1 <0>         0.4342
@<TRIPOS>BOND
     1    1    2 1
     2    1   37 1
     3    1   38 1
     4    1   39 1
     5    2    6 1
     6    2    3 2
     7    3    4 1
     8    3    9 1
     9    4    5 2
    10    4    8 1
    11    5    6 1
    12    6    7 1
    13    8   40 1
    14    8   41 1
    15    8   42 1
    16    9   10 1
    17    9   11 1
    18    9   12 1
    19   11   43 1
    20   11   44 1
    21   11   45 1
    22   12   13 am
    23   12   46 1
    24   13   14 2
    25   13   15 1
    26   15   16 1
    27   15   20 1
    28   15   17 1
    29   17   18 1
    30   17   47 1
    31   17   48 1
    32   18   19 1
    33   18   26 am
    34   19   20 1
    35   19   49 1
    36   19   50 1
    37   20   25 1
    38   20   21 1
    39   21   22 1
    40   21   51 1
    41   21   52 1
    42   22   23 1
    43   22   53 1
    44   22   54 1
    45   23   24 1
    46   23   55 1
    47   23   66 1
    48   24   25 1
    49   24   56 1
    50   24   57 1
    51   25   58 1
    52   25   59 1
    53   26   27 2
    54   26   28 1
    55   28   33 ar
    56   28   29 ar
    57   29   30 ar
    58   29   60 1
    59   30   31 ar
    60   30   35 1
    61   31   32 ar
    62   31   61 1
    63   32   33 ar
    64   32   62 1
    65   33   34 1
    66   35   36 1
    67   36   63 1
    68   36   64 1
    69   36   65 1
@<TRIPOS>MOLECULE
ZINC64480064
   57    61     0     0     0
SMALL
USER_CHARGES

@<TRIPOS>ATOM
      1 C1         -0.0161    1.3374    0.0094 C.2       1 <0>        -0.3032
      2 C2          0.0021   -0.0041    0.0020 C.2       1 <0>         0.1771
      3 C3         -1.2482   -0.7839    0.0035 C.2       1 <0>        -0.4089
      4 C4         -1.1816   -2.1193    0.1977 C.2       1 <0>         0.4214
      5 O1         -2.3192   -2.8526    0.2365 O.3       1 <0>        -0.6665
      6 N1          0.0409   -2.7390    0.3563 N.pl3     1 <0>        -0.5492
      7 C5          0.1313   -4.2038    0.3831 C.3       1 <0>         0.4143
      8 H1         -0.7988   -4.6189    0.7714 H         1 <0>         0.1624
      9 N2          1.2441   -4.6031    1.2483 N.pl3     1 <0>        -0.6901
     10 C6          2.2469   -3.7975    1.4691 C.cat     1 <0>         0.7202
     11 N3          2.2735   -2.5442    0.9819 N.2       1 <0>        -0.6378
     12 C7          1.1959   -2.0068    0.4532 C.2       1 <0>         0.7130
     13 N4          1.2141   -0.7150   -0.0134 N.pl3     1 <0>        -0.6031
     14 N5          3.3113   -4.2447    2.2256 N.pl3     1 <0>        -0.6939
     15 C8          4.4480   -3.3582    2.4868 C.3       1 <0>         0.1347
     16 C9          5.4820   -4.0933    3.3420 C.3       1 <0>        -0.1029
     17 C10         6.6514   -3.1814    3.6107 C.2       1 <0>         0.0428
     18 C11         6.8423   -2.4041    4.7006 C.ar      1 <0>        -0.1165
     19 C12         6.0509   -2.1813    5.9154 C.ar      1 <0>        -0.1044
     20 C13         6.5048   -1.3221    6.8592 C.ar      1 <0>         0.1116
     21 C14         7.7187   -0.6268    6.7196 C.ar      1 <0>        -0.0254
     22 C15         8.5156   -0.7652    5.6384 C.ar      1 <0>        -0.1549
     23 C16         8.1212   -1.6709    4.5547 C.ar      1 <0>         0.3163
     24 N6          8.6970   -1.9827    3.4205 N.pl3     1 <0>        -0.5659
     25 C17         7.8518   -2.9555    2.7189 C.3       1 <0>         0.0614
     26 O2          5.7608   -1.1251    7.9795 O.3       1 <0>        -0.3005
     27 C18         6.2771   -0.2106    8.9486 C.3       1 <0>         0.0136
     28 C19         0.3681   -4.7191   -1.0131 C.ar      1 <0>        -0.1431
     29 C20        -0.1196   -4.0184   -2.1004 C.ar      1 <0>        -0.0766
     30 C21         0.0976   -4.4910   -3.3812 C.ar      1 <0>        -0.1117
     31 C22         0.8028   -5.6641   -3.5747 C.ar      1 <0>        -0.0991
     32 C23         1.2913   -6.3643   -2.4875 C.ar      1 <0>        -0.1197
     33 C24         1.0778   -5.8894   -1.2069 C.ar      1 <0>        -0.1017
     34 H2          0.9117    1.8901    0.0035 H         1 <0>         0.0916
     35 H3         -0.9587    1.8646    0.0167 H         1 <0>         0.1213
     36 H4         -2.2003   -0.2969   -0.1474 H         1 <0>         0.1463
     37 H5          2.0320   -0.3075   -0.3385 H         1 <0>         0.4342
     38 H6          3.3067   -5.1460    2.5842 H         1 <0>         0.4245
     39 H7          4.9028   -3.0623    1.5414 H         1 <0>         0.0938
     40 H8          4.1025   -2.4709    3.0172 H         1 <0>         0.0938
     41 H9          5.0273   -4.3892    4.2874 H         1 <0>         0.1181
     42 H10         5.8276   -4.9806    2.8116 H         1 <0>         0.1200
     43 H11         5.1131   -2.6982    6.0561 H         1 <0>         0.1643
     44 H12         8.0257    0.0445    7.5079 H         1 <0>         0.1692
     45 H13         9.4400   -0.2107    5.5720 H         1 <0>         0.1714
     46 H14         8.3928   -3.8905    2.5731 H         1 <0>         0.1787
     47 H15         7.5349   -2.5503    1.7579 H         1 <0>         0.1780
     48 H16         7.2473   -0.5624    9.2995 H         1 <0>         0.0656
     49 H17         6.3900    0.7741    8.4951 H         1 <0>         0.0661
     50 H18         5.5879   -0.1460    9.7906 H         1 <0>         0.1186
     51 H19        -0.6706   -3.1019   -1.9492 H         1 <0>         0.1337
     52 H20        -0.2841   -3.9440   -4.2306 H         1 <0>         0.1325
     53 H21         0.9719   -6.0337   -4.5753 H         1 <0>         0.1304
     54 H22         1.8420   -7.2809   -2.6386 H         1 <0>         0.1291
     55 H23         1.4626   -6.4345   -0.3577 H         1 <0>         0.1173
     56 H24         9.5427   -1.6322    3.0998 H         1 <0>         0.4586
     57 H25         1.2354   -5.4797    1.6635 H         1 <0>         0.4293
@<TRIPOS>BOND
     1    1    2 2
     2    1   34 1
     3    1   35 1
     4    2   13 1
     5    2    3 1
     6    3    4 2
     7    3   36 1
     8    4    5 1
     9    4    6 1
    10    6   12 1
    11    6    7 1
    12    7    8 1
    13    7    9 1
    14    7   28 1
    15    9   10 2
    16    9   57 1
    17   10   11 1
    18   10   14 1
    19   11   12 2
    20   12   13 1
    21   13   37 1
    22   14   15 1
    23   14   38 1
    24   15   16 1
    25   15   39 1
    26   15   40 1
    27   16   17 1
    28   16   41 1
    29   16   42 1
    30   17   25 1
    31   17   18 2
    32   18   23 ar
    33   18   19 ar
    34   19   20 ar
    35   19   43 1
    36   20   21 ar
    37   20   26 1
    38   21   22 ar
    39   21   44 1
    40   22   23 ar
    41   22   45 1
    42   23   24 2
    43   24   25 1
    44   24   56 1
    45   25   46 1
    46   25   47 1
    47   26   27 1
    48   27   48 1
    49   27   49 1
    50   27   50 1
    51   28   33 ar
    52   28   29 ar
    53   29   30 ar
    54   29   51 1
    55   30   31 ar
    56   30   52 1
    57   31   32 ar
    58   31   53 1
    59   32   33 ar
    60   32   54 1
    61   33   55 1
@<TRIPOS>MOLECULE
ZINC11911664
   71    76     0     0     0
SMALL
USER_CHARGES
N-(1H-benzimidazol-2-ylmethyl)-2-[4-(2-methyl-4-quinolyl)-2-(morpholinomethyl)phenoxy]acetamide
@<TRIPOS>ATOM
      1 C1          0.2575   -1.3887   -9.4152 C.3       1 <0>        -0.1123
      2 C2          1.1458   -0.7913   -8.3546 C.ar      1 <0>         0.1627
      3 C3          0.5926   -0.4433   -7.1285 C.ar      1 <0>        -0.1531
      4 C4          1.4005    0.1083   -6.1424 C.ar      1 <0>        -0.0008
      5 C5          2.7738    0.2980   -6.4416 C.ar      1 <0>        -0.0932
      6 C6          3.6568    0.8429   -5.5002 C.ar      1 <0>        -0.1118
      7 C7          4.9709    1.0037   -5.8230 C.ar      1 <0>        -0.1058
      8 C8          5.4490    0.6279   -7.0762 C.ar      1 <0>        -0.0979
      9 C9          4.6189    0.0912   -8.0118 C.ar      1 <0>        -0.0874
     10 C10         3.2566   -0.0897   -7.7145 C.ar      1 <0>         0.1378
     11 N1          2.4193   -0.6151   -8.6153 N.ar      1 <0>        -0.4669
     12 C11         0.8453    0.4913   -4.8248 C.ar      1 <0>        -0.0683
     13 C12         1.4691    0.0636   -3.6517 C.ar      1 <0>        -0.0287
     14 C13         0.9526    0.4268   -2.4268 C.ar      1 <0>        -0.1983
     15 C14        -0.1943    1.2078   -2.3587 C.ar      1 <0>         0.1525
     16 C15        -0.8179    1.6347   -3.5238 C.ar      1 <0>        -0.1833
     17 C16        -0.3033    1.2803   -4.7526 C.ar      1 <0>        -0.0356
     18 C17        -2.0583    2.4869   -3.4447 C.3       1 <0>         0.0586
     19 C18        -1.0811    4.0199   -1.8442 C.3       1 <0>        -0.0404
     20 C19        -0.6466    5.4728   -1.6339 C.3       1 <0>         0.0374
     21 O1         -1.7746    6.3333   -1.8146 O.3       1 <0>        -0.3560
     22 C20        -2.3808    6.2244   -3.1054 C.3       1 <0>         0.0358
     23 C21        -2.8328    4.7791   -3.3306 C.3       1 <0>        -0.0394
     24 O2         -0.7038    1.5592   -1.1497 O.3       1 <0>        -0.2951
     25 C22        -0.0127    1.0858    0.0080 C.3       1 <0>         0.0333
     26 C23        -0.7181    1.5718    1.2479 C.2       1 <0>         0.5230
     27 O3         -1.7145    2.2562    1.1498 O.2       1 <0>        -0.5172
     28 N2         -0.2416    1.2460    2.4658 N.am      1 <0>        -0.7164
     29 C24        -0.9273    1.7184    3.6711 C.3       1 <0>         0.2074
     30 C25        -0.1984    1.2192    4.8920 C.2       1 <0>         0.2458
     31 N3          0.7426    1.9212    5.5792 N.pl3     1 <0>        -0.5937
     32 H1          1.0671    2.8429    5.3666 H         1 <0>         0.4301
     33 C26         1.1665    1.1253    6.6245 C.ar      1 <0>         0.0579
     34 C27         2.0899    1.2854    7.6488 C.ar      1 <0>        -0.1163
     35 C28         2.2835    0.2681    8.5587 C.ar      1 <0>        -0.0875
     36 C29         1.5622   -0.9131    8.4571 C.ar      1 <0>        -0.1240
     37 C30         0.6491   -1.0881    7.4562 C.ar      1 <0>        -0.0582
     38 C31         0.4364   -0.0707    6.5222 C.ar      1 <0>         0.0392
     39 N4         -0.3815    0.0561    5.4457 N.2       1 <0>        -0.4630
     40 H2         -0.1608   -0.5918  -10.0301 H         1 <0>         0.0844
     41 H3          0.8422   -2.0622  -10.0418 H         1 <0>         0.0842
     42 H4         -0.5515   -1.9443   -8.9409 H         1 <0>         0.0792
     43 H5         -0.4598   -0.6005   -6.9433 H         1 <0>         0.1400
     44 H6          3.2971    1.1378   -4.5255 H         1 <0>         0.1264
     45 H7          5.6500    1.4281   -5.0983 H         1 <0>         0.1305
     46 H8          6.4946    0.7650   -7.3092 H         1 <0>         0.1357
     47 H9          5.0051   -0.1944   -8.9792 H         1 <0>         0.1410
     48 H10         2.3582   -0.5472   -3.7039 H         1 <0>         0.1440
     49 H11         1.4374    0.1002   -1.5187 H         1 <0>         0.1460
     50 H12        -0.7888    1.6127   -5.6583 H         1 <0>         0.1452
     51 H13        -2.5987    2.4305   -4.3897 H         1 <0>         0.1375
     52 H14        -2.6969    2.1251   -2.6389 H         1 <0>         0.1433
     53 H15        -1.8156    3.7464   -1.0867 H         1 <0>         0.1518
     54 H16        -0.2133    3.3653   -1.7637 H         1 <0>         0.1374
     55 H17         0.1269    5.7298   -2.3575 H         1 <0>         0.0755
     56 H18        -0.2548    5.5937   -0.6239 H         1 <0>         0.1359
     57 H19        -1.6577    6.5032   -3.8718 H         1 <0>         0.0789
     58 H20        -3.2436    6.8882   -3.1594 H         1 <0>         0.1409
     59 H21        -3.2437    4.6786   -4.3352 H         1 <0>         0.1400
     60 H22        -3.5957    4.5172   -2.5974 H         1 <0>         0.1416
     61 H23         0.0021   -0.0041    0.0020 H         1 <0>         0.1086
     62 H24         1.0099    1.4631    0.0003 H         1 <0>         0.1045
     63 H25         0.5554    0.6986    2.5442 H         1 <0>         0.4097
     64 H26        -0.9421    2.8083    3.6771 H         1 <0>         0.0958
     65 H27        -1.9499    1.3411    3.6788 H         1 <0>         0.1116
     66 H28         2.6537    2.2028    7.7326 H         1 <0>         0.1266
     67 H29         3.0013    0.3912    9.3563 H         1 <0>         0.1358
     68 H30         1.7240   -1.7019    9.1769 H         1 <0>         0.1351
     69 H31         0.0929   -2.0112    7.3868 H         1 <0>         0.1329
     70 N5         -1.6597    3.8895   -3.1978 N.4       1 <0>        -0.3926
     71 H32        -0.9530    4.1626   -3.8908 H         1 <0>         0.4218
@<TRIPOS>BOND
     1    1    2 1
     2    1   40 1
     3    1   41 1
     4    1   42 1
     5    2   11 ar
     6    2    3 ar
     7    3    4 ar
     8    3   43 1
     9    4    5 ar
    10    4   12 1
    11    5   10 ar
    12    5    6 ar
    13    6    7 ar
    14    6   44 1
    15    7    8 ar
    16    7   45 1
    17    8    9 ar
    18    8   46 1
    19    9   10 ar
    20    9   47 1
    21   10   11 ar
    22   12   17 ar
    23   12   13 ar
    24   13   14 ar
    25   13   48 1
    26   14   15 ar
    27   14   49 1
    28   15   16 ar
    29   15   24 1
    30   16   17 ar
    31   16   18 1
    32   17   50 1
    33   18   51 1
    34   18   52 1
    35   18   70 1
    36   19   20 1
    37   19   53 1
    38   19   54 1
    39   19   70 1
    40   20   21 1
    41   20   55 1
    42   20   56 1
    43   21   22 1
    44   22   23 1
    45   22   57 1
    46   22   58 1
    47   23   59 1
    48   23   60 1
    49   23   70 1
    50   24   25 1
    51   25   26 1
    52   25   61 1
    53   25   62 1
    54   26   27 2
    55   26   28 am
    56   28   29 1
    57   28   63 1
    58   29   30 1
    59   29   64 1
    60   29   65 1
    61   30   39 2
    62   30   31 1
    63   31   32 1
    64   31   33 1
    65   33   38 ar
    66   33   34 ar
    67   34   35 ar
    68   34   66 1
    69   35   36 ar
    70   35   67 1
    71   36   37 ar
    72   36   68 1
    73   37   38 ar
    74   37   69 1
    75   38   39 1
    76   70   71 1
@<TRIPOS>MOLECULE
ZINC20676816
   68    71     0     0     0
SMALL
USER_CHARGES
2-[(2S)-1-[2-[4-(4-chlorophenyl)piperazin-1-yl]acetyl]-3-oxo-piperazin-2-yl]-N-(4-ethylphenyl)acetamide
@<TRIPOS>ATOM
      1 C1         -2.6625    4.7611   -1.1582 C.3       1 <0>        -0.1462
      2 C2         -2.5525    3.8676    0.0789 C.3       1 <0>        -0.0906
      3 C3         -1.2361    3.1345    0.0536 C.ar      1 <0>        -0.0887
      4 C4         -1.1447    1.9018   -0.5665 C.ar      1 <0>        -0.0987
      5 C5          0.0588    1.2246   -0.5860 C.ar      1 <0>        -0.1396
      6 C6          1.1805    1.7878    0.0083 C.ar      1 <0>         0.1374
      7 C7          1.0867    3.0284    0.6253 C.ar      1 <0>        -0.1190
      8 C8         -0.1209    3.6981    0.6460 C.ar      1 <0>        -0.1034
      9 N1          2.4024    1.1064   -0.0140 N.am      1 <0>        -0.6832
     10 C9          3.5560    1.7948   -0.1230 C.2       1 <0>         0.5170
     11 O1          3.5413    3.0076   -0.1174 O.2       1 <0>        -0.5121
     12 C10         4.8641    1.0577   -0.2520 C.3       1 <0>        -0.1506
     13 C11         6.0095    2.0664   -0.3591 C.3       1 <0>         0.1539
     14 H1          5.9854    2.7723    0.4842 H         1 <0>         0.1445
     15 C12         7.3242    1.3356   -0.3793 C.2       1 <0>         0.5135
     16 O2          7.7244    0.8362    0.6510 O.2       1 <0>        -0.5245
     17 N2          8.0701    1.2115   -1.4781 N.am      1 <0>        -0.7296
     18 C13         7.7638    1.8318   -2.7598 C.3       1 <0>         0.0990
     19 C14         6.2752    2.1714   -2.8562 C.3       1 <0>         0.0757
     20 N3          5.8733    2.8358   -1.6049 N.am      1 <0>        -0.5978
     21 C15         5.3994    4.0975   -1.6017 C.2       1 <0>         0.5131
     22 O3          5.0751    4.6208   -0.5567 O.2       1 <0>        -0.4781
     23 C16         5.2725    4.8580   -2.8965 C.3       1 <0>        -0.0285
     24 N4          4.7363    6.1988   -2.6263 N.4       1 <0>        -0.3895
     25 C17         3.3545    6.1235   -2.1319 C.3       1 <0>        -0.0079
     26 C18         2.8613    7.5310   -1.7879 C.3       1 <0>         0.0316
     27 N5          2.9443    8.3820   -2.9831 N.pl3     1 <0>        -0.4865
     28 C19         4.3262    8.4573   -3.4775 C.3       1 <0>         0.0195
     29 C20         4.8194    7.0498   -3.8215 C.3       1 <0>         0.0009
     30 C21         2.4343    9.6574   -2.7261 C.ar      1 <0>         0.0938
     31 C22         3.2246   10.7792   -2.9411 C.ar      1 <0>        -0.1520
     32 C23         2.7158   12.0388   -2.6922 C.ar      1 <0>        -0.0821
     33 C24         1.4241   12.1832   -2.2173 C.ar      1 <0>        -0.0460
     34 C25         0.6364   11.0671   -1.9967 C.ar      1 <0>        -0.0825
     35 C26         1.1380    9.8054   -2.2498 C.ar      1 <0>        -0.1162
     36 Cl1         0.7905   13.7676   -1.8981 Cl        1 <0>        -0.0543
     37 H2         -3.6234    5.2962   -1.1397 H         1 <0>         0.0615
     38 H3         -2.6056    4.1407   -2.0648 H         1 <0>         0.0551
     39 H4         -1.8375    5.4887   -1.1595 H         1 <0>         0.0519
     40 H5         -2.6094    4.4880    0.9855 H         1 <0>         0.0739
     41 H6         -3.3775    3.1400    0.0802 H         1 <0>         0.0751
     42 H7         -2.0163    1.4664   -1.0324 H         1 <0>         0.1265
     43 H8          0.1286    0.2601   -1.0669 H         1 <0>         0.1247
     44 H9          1.9573    3.4692    1.0880 H         1 <0>         0.1377
     45 H10        -0.1945    4.6630    1.1256 H         1 <0>         0.1227
     46 H11         2.4215    0.0089    0.0574 H         1 <0>         0.4374
     47 H12         5.0161    0.4229    0.6334 H         1 <0>         0.1263
     48 H13         4.8434    0.4292   -1.1545 H         1 <0>         0.1061
     49 H14         8.9710    0.5898   -1.3693 H         1 <0>         0.4364
     50 H15         8.3468    2.7584   -2.8673 H         1 <0>         0.0727
     51 H16         8.0231    1.1389   -3.5738 H         1 <0>         0.1019
     52 H17         6.1068    2.8422   -3.7116 H         1 <0>         0.1048
     53 H18         5.6964    1.2465   -2.9961 H         1 <0>         0.0955
     54 H19         6.2624    4.9471   -3.3679 H         1 <0>         0.1588
     55 H20         4.5915    4.3201   -3.5725 H         1 <0>         0.1550
     56 H21         2.7100    5.6879   -2.9097 H         1 <0>         0.1301
     57 H22         3.3210    5.4919   -1.2319 H         1 <0>         0.1638
     58 H23         1.8175    7.4800   -1.4446 H         1 <0>         0.1284
     59 H24         3.4893    7.9549   -0.9904 H         1 <0>         0.0726
     60 H25         4.3597    9.0888   -4.3775 H         1 <0>         0.1328
     61 H26         4.9707    8.8929   -2.6997 H         1 <0>         0.0743
     62 H27         5.8634    7.0996   -4.1643 H         1 <0>         0.1415
     63 H28         4.1917    6.6248   -4.6186 H         1 <0>         0.1389
     64 H29         4.2346   10.6668   -3.3069 H         1 <0>         0.1359
     65 H30         3.3282   12.9116   -2.8641 H         1 <0>         0.1401
     66 H31        -0.3713   11.1827   -1.6260 H         1 <0>         0.1422
     67 H32         0.5229    8.9346   -2.0771 H         1 <0>         0.1368
     68 H33         5.3540    6.6566   -1.8397 H         1 <0>         0.4464
@<TRIPOS>BOND
     1    1    2 1
     2    1   37 1
     3    1   38 1
     4    1   39 1
     5    2    3 1
     6    2   40 1
     7    2   41 1
     8    3    8 ar
     9    3    4 ar
    10    4    5 ar
    11    4   42 1
    12    5    6 ar
    13    5   43 1
    14    6    7 ar
    15    6    9 1
    16    7    8 ar
    17    7   44 1
    18    8   45 1
    19    9   10 am
    20    9   46 1
    21   10   11 2
    22   10   12 1
    23   12   13 1
    24   12   47 1
    25   12   48 1
    26   13   14 1
    27   13   20 1
    28   13   15 1
    29   15   16 2
    30   15   17 am
    31   17   18 1
    32   17   49 1
    33   18   19 1
    34   18   50 1
    35   18   51 1
    36   19   20 1
    37   19   52 1
    38   19   53 1
    39   20   21 am
    40   21   22 2
    41   21   23 1
    42   23   24 1
    43   23   54 1
    44   23   55 1
    45   24   29 1
    46   24   25 1
    47   24   68 1
    48   25   26 1
    49   25   56 1
    50   25   57 1
    51   26   27 1
    52   26   58 1
    53   26   59 1
    54   27   28 1
    55   27   30 1
    56   28   29 1
    57   28   60 1
    58   28   61 1
    59   29   62 1
    60   29   63 1
    61   30   35 ar
    62   30   31 ar
    63   31   32 ar
    64   31   64 1
    65   32   33 ar
    66   32   65 1
    67   33   34 ar
    68   33   36 1
    69   34   35 ar
    70   34   66 1
    71   35   67 1
@<TRIPOS>MOLECULE
ZINC35337834
   68    71     0     0     0
SMALL
USER_CHARGES

@<TRIPOS>ATOM
      1 C1          0.0786    1.3336   -0.1220 C.3       1 <0>        -0.1152
      2 C2          0.0295   -0.1725   -0.1041 C.2       1 <0>         0.1792
      3 C3         -1.1756   -0.8046   -0.0581 C.2       1 <0>        -0.2252
      4 C4         -1.2207   -2.3106    0.0241 C.3       1 <0>         0.2195
      5 H1         -2.0861   -2.6813   -0.5253 H         1 <0>         0.1355
      6 N1          0.0142   -2.8519   -0.5738 N.pl3     1 <0>        -0.5223
      7 C5         -0.0843   -4.0428   -1.3975 C.3       1 <0>         0.0816
      8 C6          1.0986   -4.9798   -1.3652 C.3       1 <0>        -0.1480
      9 C7          2.4009   -4.2677   -1.7379 C.3       1 <0>        -0.1189
     10 S1          2.7245   -3.0207   -0.4495 S.3       1 <0>         0.0542
     11 C8          1.1795   -2.1682   -0.3687 C.cat     1 <0>         0.4447
     12 N2          1.1649   -0.8669   -0.1391 N.pl3     1 <0>        -0.5263
     13 C9         -1.3171   -2.7359    1.4666 C.ar      1 <0>        -0.1404
     14 C10        -0.1825   -2.7570    2.2569 C.ar      1 <0>        -0.0861
     15 C11        -0.2674   -3.1461    3.5793 C.ar      1 <0>        -0.1171
     16 C12        -1.4942   -3.5167    4.1152 C.ar      1 <0>         0.1769
     17 C13        -2.6319   -3.4943    3.3185 C.ar      1 <0>        -0.1391
     18 C14        -2.5409   -3.0987    1.9985 C.ar      1 <0>        -0.0666
     19 N3         -1.5835   -3.9112    5.4521 N.pl3     1 <0>        -1.0604
     20 S2         -2.7877   -3.3072    6.4150 S.o2      1 <0>         2.6858
     21 O1         -4.0097   -3.5290    5.7244 O.2       1 <0>        -0.9441
     22 O2         -2.5507   -3.8074    7.7238 O.2       1 <0>        -0.9381
     23 C15        -2.5643   -1.5612    6.4951 C.ar      1 <0>        -0.6843
     24 C16        -1.6880   -1.0181    7.4160 C.ar      1 <0>        -0.0135
     25 C17        -1.5127    0.3517    7.4788 C.ar      1 <0>        -0.1352
     26 C18        -2.2134    1.1783    6.6205 C.ar      1 <0>        -0.0034
     27 C19        -3.0890    0.6350    5.6990 C.ar      1 <0>        -0.1411
     28 C20        -3.2611   -0.7350    5.6333 C.ar      1 <0>        -0.0144
     29 C21        -2.0230    2.6716    6.6897 C.3       1 <0>        -0.0400
     30 C22        -0.5568    3.0120    6.4158 C.3       1 <0>        -0.1390
     31 C23        -2.9081    3.3477    5.6406 C.3       1 <0>        -0.1475
     32 C24        -2.4110    3.1712    8.0828 C.3       1 <0>        -0.1431
     33 C25        -2.3691   -0.0597   -0.0874 C.2       1 <0>         0.5667
     34 O3         -2.3268    1.1565   -0.1542 O.2       1 <0>        -0.5167
     35 N4         -3.5589   -0.6911   -0.0415 N.am      1 <0>        -0.7253
     36 C26        -4.8014    0.0845   -0.0720 C.3       1 <0>         0.0825
     37 H2          1.1168    1.6628   -0.1642 H         1 <0>         0.0764
     38 H3         -0.4559    1.7042   -0.9967 H         1 <0>         0.1211
     39 H4         -0.3896    1.7231    0.7820 H         1 <0>         0.1160
     40 H5         -0.9661   -4.6003   -1.0818 H         1 <0>         0.1280
     41 H6         -0.2385   -3.7282   -2.4297 H         1 <0>         0.1053
     42 H7          1.1955   -5.3944   -0.3618 H         1 <0>         0.1032
     43 H8          0.9255   -5.7941   -2.0688 H         1 <0>         0.1329
     44 H9          3.2197   -4.9863   -1.7725 H         1 <0>         0.1567
     45 H10         2.2928   -3.7803   -2.7069 H         1 <0>         0.1254
     46 H11         0.7710   -2.4691    1.8395 H         1 <0>         0.1055
     47 H12         0.6192   -3.1627    4.1959 H         1 <0>         0.1390
     48 H13        -3.5872   -3.7822    3.7320 H         1 <0>         0.1692
     49 H14        -3.4258   -3.0769    1.3797 H         1 <0>         0.1355
     50 H15        -0.9401   -4.5391    5.8165 H         1 <0>         0.4327
     51 H16        -1.1406   -1.6639    8.0865 H         1 <0>         0.1398
     52 H17        -0.8286    0.7761    8.1987 H         1 <0>         0.1352
     53 H18        -3.6367    1.2809    5.0287 H         1 <0>         0.1385
     54 H19        -3.9424   -1.1596    4.9109 H         1 <0>         0.1386
     55 H20        -0.2804    2.6561    5.4233 H         1 <0>         0.0546
     56 H21        -0.4191    4.0921    6.4658 H         1 <0>         0.0664
     57 H22         0.0738    2.5304    7.1632 H         1 <0>         0.0596
     58 H23        -3.9527    3.1051    5.8358 H         1 <0>         0.0619
     59 H24        -2.7704    4.4278    5.6907 H         1 <0>         0.0656
     60 H25        -2.6317    2.9917    4.6482 H         1 <0>         0.0585
     61 H26        -1.7805    2.6895    8.8301 H         1 <0>         0.0604
     62 H27        -2.2733    4.2513    8.1328 H         1 <0>         0.0668
     63 H28        -3.4556    2.9286    8.2779 H         1 <0>         0.0601
     64 H29        -3.5926   -1.6591    0.0117 H         1 <0>         0.3954
     65 H30        -5.6539   -0.5932   -0.0268 H         1 <0>         0.0837
     66 H31        -4.8289    0.7603    0.7827 H         1 <0>         0.0691
     67 H32        -4.8459    0.6633   -0.9945 H         1 <0>         0.0687
     68 H33         2.0049   -0.4061    0.0122 H         1 <0>         0.4547
@<TRIPOS>BOND
     1    1    2 1
     2    1   37 1
     3    1   38 1
     4    1   39 1
     5    2   12 1
     6    2    3 2
     7    3    4 1
     8    3   33 1
     9    4    5 1
    10    4    6 1
    11    4   13 1
    12    6   11 1
    13    6    7 1
    14    7    8 1
    15    7   40 1
    16    7   41 1
    17    8    9 1
    18    8   42 1
    19    8   43 1
    20    9   10 1
    21    9   44 1
    22    9   45 1
    23   10   11 1
    24   11   12 2
    25   12   68 1
    26   13   18 ar
    27   13   14 ar
    28   14   15 ar
    29   14   46 1
    30   15   16 ar
    31   15   47 1
    32   16   17 ar
    33   16   19 1
    34   17   18 ar
    35   17   48 1
    36   18   49 1
    37   19   20 1
    38   19   50 1
    39   20   21 2
    40   20   22 2
    41   20   23 1
    42   23   28 ar
    43   23   24 ar
    44   24   25 ar
    45   24   51 1
    46   25   26 ar
    47   25   52 1
    48   26   27 ar
    49   26   29 1
    50   27   28 ar
    51   27   53 1
    52   28   54 1
    53   29   30 1
    54   29   31 1
    55   29   32 1
    56   30   55 1
    57   30   56 1
    58   30   57 1
    59   31   58 1
    60   31   59 1
    61   31   60 1
    62   32   61 1
    63   32   62 1
    64   32   63 1
    65   33   34 2
    66   33   35 am
    67   35   36 1
    68   35   64 1
    69   36   65 1
    70   36   66 1
    71   36   67 1
@<TRIPOS>MOLECULE
ZINC39595793
   66    69     0     0     0
SMALL
USER_CHARGES

@<TRIPOS>ATOM
      1 C1          4.0524    1.3956   -1.8568 C.3       1 <0>        -0.1824
      2 C2          4.1903   -0.1058   -2.1174 C.3       1 <0>         0.0700
      3 H1          4.5096   -0.6054   -1.2028 H         1 <0>         0.0846
      4 C3          2.8407   -0.6720   -2.5634 C.3       1 <0>         0.1240
      5 N1          2.9421   -2.1273   -2.6977 N.am      1 <0>        -0.7279
      6 C4          1.8682   -2.8450   -3.0825 C.2       1 <0>         0.5159
      7 O1          0.8178   -2.2860   -3.3176 O.2       1 <0>        -0.5124
      8 C5          1.9725   -4.3420   -3.2206 C.3       1 <0>        -0.1153
      9 H2          2.6490   -4.7457   -2.4674 H         1 <0>         0.1211
     10 C6          0.5766   -4.9925   -3.0941 C.3       1 <0>         0.1040
     11 N2          0.1072   -5.1463   -4.4912 N.am      1 <0>        -0.6124
     12 C7          1.3172   -5.5558   -5.2437 C.3       1 <0>         0.1092
     13 C8          2.4566   -4.7172   -4.6313 C.3       1 <0>        -0.0738
     14 C9          3.7358   -5.5445   -4.5485 C.3       1 <0>        -0.1337
     15 C10         4.2298   -5.8556   -5.9641 C.3       1 <0>        -0.0103
     16 N3          4.4804   -4.6011   -6.6837 N.4       1 <0>        -0.5047
     17 C11         3.2262   -3.8546   -6.8404 C.3       1 <0>        -0.0086
     18 C12         2.6898   -3.4588   -5.4619 C.3       1 <0>        -0.1485
     19 C13        -1.1385   -4.9570   -4.9697 C.2       1 <0>         0.5936
     20 O2         -1.3875   -5.2080   -6.1328 O.2       1 <0>        -0.5080
     21 C14        -2.2010   -4.4446   -4.0809 C.ar      1 <0>        -0.1340
     22 C15        -2.2987   -4.9051   -2.7660 C.ar      1 <0>        -0.0647
     23 C16        -3.2924   -4.4224   -1.9415 C.ar      1 <0>        -0.0840
     24 C17        -4.1940   -3.4832   -2.4128 C.ar      1 <0>        -0.1267
     25 C18        -4.1059   -3.0217   -3.7125 C.ar      1 <0>        -0.1071
     26 C19        -3.1105   -3.4918   -4.5500 C.ar      1 <0>         0.1601
     27 F1         -3.0211   -3.0364   -5.8187 F         1 <0>        -0.1115
     28 C20        -5.2773   -2.9619   -1.5040 C.3       1 <0>         0.5091
     29 F2         -4.8115   -1.8316   -0.8239 F         1 <0>        -0.1689
     30 F3         -6.3996   -2.6185   -2.2653 F         1 <0>        -0.1694
     31 F4         -5.6263   -3.9518   -0.5790 F         1 <0>        -0.1692
     32 O3          5.1609   -0.3240   -3.1432 O.3       1 <0>        -0.3098
     33 C21         6.4650   -0.3610   -2.7611 C.ar      1 <0>         0.1149
     34 C22         6.7998   -0.2313   -1.4213 C.ar      1 <0>        -0.1809
     35 C23         8.1255   -0.2691   -1.0345 C.ar      1 <0>        -0.1084
     36 C24         9.1198   -0.4357   -1.9835 C.ar      1 <0>         0.0685
     37 C25         8.7871   -0.5648   -3.3212 C.ar      1 <0>        -0.1132
     38 C26         7.4618   -0.5341   -3.7101 C.ar      1 <0>        -0.1267
     39 F5         10.4158   -0.4720   -1.6038 F         1 <0>        -0.1350
     40 H3          3.7331    1.8952   -2.7714 H         1 <0>         0.0750
     41 H4          3.3121    1.5621   -1.0744 H         1 <0>         0.0814
     42 H5          5.0139    1.7990   -1.5391 H         1 <0>         0.0727
     43 H6          2.0809   -0.4277   -1.8210 H         1 <0>         0.0961
     44 H7          2.5636   -0.2370   -3.5236 H         1 <0>         0.0844
     45 H8          3.7821   -2.5744   -2.5096 H         1 <0>         0.4010
     46 H9          0.6535   -5.9659   -2.6097 H         1 <0>         0.0958
     47 H10        -0.0968   -4.3417   -2.5363 H         1 <0>         0.1058
     48 H11         1.5109   -6.6192   -5.1031 H         1 <0>         0.0895
     49 H12         1.2023   -5.3259   -6.3030 H         1 <0>         0.0904
     50 H13         4.4994   -4.9812   -4.0122 H         1 <0>         0.0983
     51 H14         3.5327   -6.4765   -4.0209 H         1 <0>         0.1229
     52 H15         5.1528   -6.4327   -5.9079 H         1 <0>         0.1408
     53 H16         3.4725   -6.4333   -6.4942 H         1 <0>         0.1334
     54 H17         5.1400   -4.0423   -6.1633 H         1 <0>         0.4281
     55 H18         3.4094   -2.9566   -7.4303 H         1 <0>         0.1391
     56 H19         2.4928   -4.4799   -7.3496 H         1 <0>         0.1341
     57 H20         1.7493   -2.9202   -5.5783 H         1 <0>         0.1203
     58 H21         3.4156   -2.8200   -4.9587 H         1 <0>         0.1009
     59 H22        -1.5972   -5.6382   -2.3960 H         1 <0>         0.1498
     60 H23        -3.3682   -4.7784   -0.9246 H         1 <0>         0.1540
     61 H24        -4.8130   -2.2896   -4.0736 H         1 <0>         0.1606
     62 H25         6.0245   -0.1006   -0.6810 H         1 <0>         0.1403
     63 H26         8.3864   -0.1681    0.0087 H         1 <0>         0.1421
     64 H27         9.5636   -0.6944   -4.0605 H         1 <0>         0.1442
     65 H28         7.2022   -0.6397   -4.7531 H         1 <0>         0.1368
     66 H29         4.8633   -4.8078   -7.5941 H         1 <0>         0.4347
@<TRIPOS>BOND
     1    1    2 1
     2    1   40 1
     3    1   41 1
     4    1   42 1
     5    2    3 1
     6    2    4 1
     7    2   32 1
     8    4    5 1
     9    4   43 1
    10    4   44 1
    11    5    6 am
    12    5   45 1
    13    6    7 2
    14    6    8 1
    15    8    9 1
    16    8   13 1
    17    8   10 1
    18   10   11 1
    19   10   46 1
    20   10   47 1
    21   11   12 1
    22   11   19 am
    23   12   13 1
    24   12   48 1
    25   12   49 1
    26   13   18 1
    27   13   14 1
    28   14   15 1
    29   14   50 1
    30   14   51 1
    31   15   16 1
    32   15   52 1
    33   15   53 1
    34   16   17 1
    35   16   54 1
    36   16   66 1
    37   17   18 1
    38   17   55 1
    39   17   56 1
    40   18   57 1
    41   18   58 1
    42   19   20 2
    43   19   21 1
    44   21   26 ar
    45   21   22 ar
    46   22   23 ar
    47   22   59 1
    48   23   24 ar
    49   23   60 1
    50   24   25 ar
    51   24   28 1
    52   25   26 ar
    53   25   61 1
    54   26   27 1
    55   28   29 1
    56   28   30 1
    57   28   31 1
    58   32   33 1
    59   33   38 ar
    60   33   34 ar
    61   34   35 ar
    62   34   62 1
    63   35   36 ar
    64   35   63 1
    65   36   37 ar
    66   36   39 1
    67   37   38 ar
    68   37   64 1
    69   38   65 1
@<TRIPOS>MOLECULE
ZINC22933881
   72    76     0     0     0
SMALL
USER_CHARGES

@<TRIPOS>ATOM
      1 C1          0.2184    0.9963   -0.5562 C.3       1 <0>        -0.1301
      2 C2          0.6373   -0.4374   -0.3556 C.ar      1 <0>        -0.0730
      3 C3          0.7711   -1.2774   -1.4455 C.ar      1 <0>        -0.1209
      4 C4          1.1553   -2.5923   -1.2615 C.ar      1 <0>        -0.1096
      5 C5          1.4063   -3.0673    0.0124 C.ar      1 <0>        -0.1280
      6 C6          1.2733   -2.2273    1.1019 C.ar      1 <0>        -0.0857
      7 C7          0.8932   -0.9109    0.9175 C.ar      1 <0>        -0.0892
      8 C8          0.7533    0.0065    2.1049 C.3       1 <0>         0.1788
      9 H1          1.0313    1.0200    1.8157 H         1 <0>         0.0771
     10 C9         -0.6756   -0.0054    2.5833 C.ar      1 <0>        -0.1104
     11 C10        -1.1542   -1.0835    3.3042 C.ar      1 <0>        -0.0905
     12 C11        -2.4650   -1.0944    3.7430 C.ar      1 <0>        -0.1218
     13 C12        -3.2971   -0.0270    3.4614 C.ar      1 <0>        -0.1141
     14 C13        -2.8182    1.0515    2.7414 C.ar      1 <0>        -0.1190
     15 C14        -1.5062    1.0643    2.3062 C.ar      1 <0>        -0.1142
     16 O1          1.6114   -0.4411    3.1562 O.3       1 <0>        -0.3569
     17 C15         2.0901    0.6068    4.0017 C.3       1 <0>         0.0279
     18 C16         2.9940    0.0153    5.0852 C.3       1 <0>         0.1196
     19 H2          2.4544   -0.7645    5.6227 H         1 <0>         0.1055
     20 C17         3.4059    1.1173    6.0634 C.3       1 <0>         0.0232
     21 N1          4.2122    0.5358    7.1449 N.3       1 <0>        -0.5283
     22 C18         5.0013    1.5704    7.8283 C.3       1 <0>         0.0284
     23 C19         5.8696    0.9168    8.9056 C.3       1 <0>        -0.0036
     24 N2          5.0103    0.2160    9.8689 N.4       1 <0>        -0.3721
     25 C20         4.2469   -0.8302    9.1760 C.3       1 <0>        -0.0107
     26 C21         3.3650   -0.1912    8.1009 C.3       1 <0>         0.0289
     27 C22         5.8431   -0.3960   10.9128 C.3       1 <0>         0.0505
     28 C23         4.9575   -1.0097   11.9664 C.2       1 <0>         0.3577
     29 N3          5.5464   -1.6237   13.0256 N.am      1 <0>        -0.6428
     30 H3          6.5140   -1.6563   13.0851 H         1 <0>         0.4255
     31 C24         4.7954   -2.1899   13.9988 C.2       1 <0>         0.5533
     32 O2          5.3098   -2.7425   14.9537 O.2       1 <0>        -0.4777
     33 C25         3.3338   -2.1111   13.8580 C.ar      1 <0>        -0.1792
     34 C26         2.4714   -2.6620   14.8037 C.ar      1 <0>        -0.0404
     35 C27         1.1097   -2.5596   14.6216 C.ar      1 <0>        -0.1123
     36 C28         0.5928   -1.9134   13.5062 C.ar      1 <0>        -0.0677
     37 C29         1.4276   -1.3628   12.5601 C.ar      1 <0>        -0.0986
     38 C30         2.8117   -1.4532   12.7224 C.ar      1 <0>         0.1325
     39 N4          3.6707   -0.9200   11.8180 N.2       1 <0>        -0.5247
     40 O3          4.1608   -0.5441    4.4790 O.3       1 <0>        -0.5366
     41 H4          1.1032    1.6320   -0.5901 H         1 <0>         0.0713
     42 H5         -0.3301    1.0867   -1.4938 H         1 <0>         0.0712
     43 H6         -0.4209    1.3071    0.2701 H         1 <0>         0.0714
     44 H7          0.5751   -0.9063   -2.4406 H         1 <0>         0.1245
     45 H8          1.2592   -3.2487   -2.1128 H         1 <0>         0.1238
     46 H9          1.7058   -4.0949    0.1563 H         1 <0>         0.1230
     47 H10         1.4690   -2.5985    2.0971 H         1 <0>         0.1268
     48 H11        -0.5042   -1.9174    3.5241 H         1 <0>         0.1237
     49 H12        -2.8391   -1.9370    4.3056 H         1 <0>         0.1231
     50 H13        -4.3214   -0.0358    3.8037 H         1 <0>         0.1236
     51 H14        -3.4684    1.8852    2.5211 H         1 <0>         0.1247
     52 H15        -1.1311    1.9085    1.7468 H         1 <0>         0.1232
     53 H16         2.6568    1.3232    3.4070 H         1 <0>         0.0557
     54 H17         1.2445    1.1112    4.4694 H         1 <0>         0.0586
     55 H18         3.9930    1.8697    5.5368 H         1 <0>         0.0923
     56 H19         2.5140    1.5815    6.4843 H         1 <0>         0.0605
     57 H20         5.6396    2.0779    7.1051 H         1 <0>         0.1252
     58 H21         4.3297    2.2932    8.2916 H         1 <0>         0.0612
     59 H22         6.5505    0.2040    8.4404 H         1 <0>         0.1426
     60 H23         6.4452    1.6842    9.4233 H         1 <0>         0.1384
     61 H24         4.9361   -1.5341    8.7094 H         1 <0>         0.1343
     62 H25         3.6194   -1.3581    9.8941 H         1 <0>         0.1552
     63 H26         2.6665    0.5026    8.5687 H         1 <0>         0.0628
     64 H27         2.8096   -0.9688    7.5766 H         1 <0>         0.1228
     65 H28         6.4706   -1.1695   10.4701 H         1 <0>         0.1637
     66 H29         6.4741    0.3673   11.3682 H         1 <0>         0.1634
     67 H30         2.8676   -3.1660   15.6728 H         1 <0>         0.1468
     68 H31         0.4383   -2.9858   15.3524 H         1 <0>         0.1445
     69 H32        -0.4773   -1.8423   13.3792 H         1 <0>         0.1442
     70 H33         1.0141   -0.8627   11.6968 H         1 <0>         0.1428
     71 H34         4.6908    0.0945    3.9826 H         1 <0>         0.3743
     72 H35         4.3722    0.8740   10.2909 H         1 <0>         0.4301
@<TRIPOS>BOND
     1    1    2 1
     2    1   41 1
     3    1   42 1
     4    1   43 1
     5    2    7 ar
     6    2    3 ar
     7    3    4 ar
     8    3   44 1
     9    4    5 ar
    10    4   45 1
    11    5    6 ar
    12    5   46 1
    13    6    7 ar
    14    6   47 1
    15    7    8 1
    16    8    9 1
    17    8   10 1
    18    8   16 1
    19   10   15 ar
    20   10   11 ar
    21   11   12 ar
    22   11   48 1
    23   12   13 ar
    24   12   49 1
    25   13   14 ar
    26   13   50 1
    27   14   15 ar
    28   14   51 1
    29   15   52 1
    30   16   17 1
    31   17   18 1
    32   17   53 1
    33   17   54 1
    34   18   19 1
    35   18   20 1
    36   18   40 1
    37   20   21 1
    38   20   55 1
    39   20   56 1
    40   21   26 1
    41   21   22 1
    42   22   23 1
    43   22   57 1
    44   22   58 1
    45   23   24 1
    46   23   59 1
    47   23   60 1
    48   24   25 1
    49   24   27 1
    50   24   72 1
    51   25   26 1
    52   25   61 1
    53   25   62 1
    54   26   63 1
    55   26   64 1
    56   27   28 1
    57   27   65 1
    58   27   66 1
    59   28   39 2
    60   28   29 1
    61   29   30 1
    62   29   31 am
    63   31   32 2
    64   31   33 1
    65   33   38 ar
    66   33   34 ar
    67   34   35 ar
    68   34   67 1
    69   35   36 ar
    70   35   68 1
    71   36   37 ar
    72   36   69 1
    73   37   38 ar
    74   37   70 1
    75   38   39 1
    76   40   71 1
@<TRIPOS>MOLECULE
ZINC09836215
   58    60     0     0     0
SMALL
USER_CHARGES
6-bromo-N-(3-dimethylaminopropyl)-3-(4-ethylphenyl)-4-hydroxy-2-oxo-1H-quinazoline-4-carboxamide
@<TRIPOS>ATOM
      1 C1         -6.8151   10.7524   -0.4900 C.3       1 <0>        -0.1486
      2 C2         -7.1264    9.3820    0.1148 C.3       1 <0>        -0.0894
      3 C3         -5.8822    8.5318    0.0996 C.ar      1 <0>        -0.0612
      4 C4         -5.0175    8.5549    1.1785 C.ar      1 <0>        -0.1150
      5 C5         -3.8764    7.7770    1.1676 C.ar      1 <0>        -0.0979
      6 C6         -3.5978    6.9710    0.0716 C.ar      1 <0>         0.1358
      7 C7         -4.4654    6.9541   -1.0126 C.ar      1 <0>        -0.0780
      8 C8         -5.6078    7.7300   -0.9931 C.ar      1 <0>        -0.1090
      9 N1         -2.4422    6.1820    0.0572 N.am      1 <0>        -0.5429
     10 C9         -1.2668    6.7027   -0.3394 C.2       1 <0>         0.7107
     11 O1         -1.2358    7.8688   -0.6824 O.2       1 <0>        -0.5352
     12 N2         -0.1295    5.9965   -0.3748 N.am      1 <0>        -0.6581
     13 C10        -0.0578    4.6536   -0.0022 C.ar      1 <0>         0.2031
     14 C11         1.1474    3.9660   -0.0567 C.ar      1 <0>        -0.1473
     15 C12         1.1981    2.6369    0.3158 C.ar      1 <0>        -0.0325
     16 C13         0.0539    1.9868    0.7436 C.ar      1 <0>        -0.1175
     17 C14        -1.1518    2.6673    0.7946 C.ar      1 <0>        -0.0283
     18 C15        -1.2030    3.9925    0.4285 C.ar      1 <0>        -0.1765
     19 C16        -2.4975    4.7709    0.4756 C.3       1 <0>         0.3956
     20 C17        -3.0160    4.7254    1.8898 C.2       1 <0>         0.4957
     21 O2         -4.0595    4.1580    2.1352 O.2       1 <0>        -0.5007
     22 N3         -2.3202    5.3152    2.8820 N.am      1 <0>        -0.7222
     23 C18        -2.8242    5.2710    4.2568 C.3       1 <0>         0.1218
     24 C19        -1.8532    6.0097    5.1800 C.3       1 <0>        -0.1665
     25 C20        -2.3796    5.9635    6.6159 C.3       1 <0>        -0.0019
     26 C21        -2.0282    6.8560    8.8391 C.3       1 <0>        -0.0429
     27 C22        -0.1585    5.9720    7.5799 C.3       1 <0>        -0.0480
     28 O3         -3.4452    4.1009   -0.3581 O.3       1 <0>        -0.5313
     29 Br1         0.1344    0.1670    1.2513 Br        1 <0>        -0.0255
     30 H1         -7.7151   11.3673   -0.4790 H         1 <0>         0.0622
     31 H2         -6.0352   11.2393    0.0954 H         1 <0>         0.0556
     32 H3         -6.4734   10.6270   -1.5174 H         1 <0>         0.0583
     33 H4         -7.9063    8.8951   -0.4706 H         1 <0>         0.0769
     34 H5         -7.4682    9.5074    1.1422 H         1 <0>         0.0736
     35 H6         -5.2346    9.1822    2.0304 H         1 <0>         0.1266
     36 H7         -3.2017    7.7951    2.0107 H         1 <0>         0.1147
     37 H8         -4.2491    6.3317   -1.8683 H         1 <0>         0.1300
     38 H9         -6.2852    7.7139   -1.8341 H         1 <0>         0.1322
     39 H10         0.6811    6.4387   -0.6718 H         1 <0>         0.4336
     40 H11         2.0430    4.4692   -0.3899 H         1 <0>         0.1498
     41 H12         2.1356    2.1025    0.2733 H         1 <0>         0.1492
     42 H13        -2.0469    2.1608    1.1243 H         1 <0>         0.1429
     43 H14        -1.4856    5.7690    2.6857 H         1 <0>         0.4021
     44 H15        -3.8025    5.7497    4.3007 H         1 <0>         0.0828
     45 H16        -2.9128    4.2332    4.5782 H         1 <0>         0.0830
     46 H17        -0.8749    5.5310    5.1362 H         1 <0>         0.0957
     47 H18        -1.7647    7.0475    4.8587 H         1 <0>         0.0950
     48 H19        -3.3579    6.4422    6.6598 H         1 <0>         0.1350
     49 H20        -2.4681    4.9257    6.9372 H         1 <0>         0.1368
     50 H21        -2.2521    5.8822    9.2746 H         1 <0>         0.1245
     51 H22        -1.3172    7.3836    9.4749 H         1 <0>         0.1242
     52 H23        -2.9462    7.4383    8.7596 H         1 <0>         0.1229
     53 H24         0.2827    5.9116    6.5850 H         1 <0>         0.1208
     54 H25         0.5128    6.5183    8.2424 H         1 <0>         0.1244
     55 H26        -0.3147    4.9662    7.9697 H         1 <0>         0.1251
     56 H27        -3.6332    3.1916   -0.0879 H         1 <0>         0.4014
     57 N4         -1.4425    6.6987    7.4911 N.4       1 <0>        -0.3979
     58 H28        -1.2724    7.6288    7.0908 H         1 <0>         0.4317
@<TRIPOS>BOND
     1    1    2 1
     2    1   30 1
     3    1   31 1
     4    1   32 1
     5    2    3 1
     6    2   33 1
     7    2   34 1
     8    3    8 ar
     9    3    4 ar
    10    4    5 ar
    11    4   35 1
    12    5    6 ar
    13    5   36 1
    14    6    7 ar
    15    6    9 1
    16    7    8 ar
    17    7   37 1
    18    8   38 1
    19    9   19 1
    20    9   10 am
    21   10   11 2
    22   10   12 am
    23   12   13 1
    24   12   39 1
    25   13   18 ar
    26   13   14 ar
    27   14   15 ar
    28   14   40 1
    29   15   16 ar
    30   15   41 1
    31   16   17 ar
    32   16   29 1
    33   17   18 ar
    34   17   42 1
    35   18   19 1
    36   19   20 1
    37   19   28 1
    38   20   21 2
    39   20   22 am
    40   22   23 1
    41   22   43 1
    42   23   24 1
    43   23   44 1
    44   23   45 1
    45   24   25 1
    46   24   46 1
    47   24   47 1
    48   25   48 1
    49   25   49 1
    50   25   57 1
    51   26   50 1
    52   26   51 1
    53   26   52 1
    54   26   57 1
    55   27   53 1
    56   27   54 1
    57   27   55 1
    58   27   57 1
    59   28   56 1
    60   57   58 1
@<TRIPOS>MOLECULE
ZINC12958004
   52    54     0     0     0
SMALL
USER_CHARGES
1-(4-chlorophenyl)-3-[[2-[4-[3-chloro-5-(trifluoromethyl)-2-pyridyl]piperazin-1-yl]acetyl]amino]urea
@<TRIPOS>ATOM
      1 C1          1.2329   -3.7638    7.4412 C.ar      1 <0>        -0.1304
      2 C2          1.5858   -4.5608    8.5125 C.ar      1 <0>        -0.0898
      3 C3          2.2395   -5.7614    8.2975 C.ar      1 <0>        -0.0442
      4 C4          2.5367   -6.1691    7.0089 C.ar      1 <0>        -0.0883
      5 C5          2.1813   -5.3782    5.9339 C.ar      1 <0>        -0.1068
      6 C6          1.5253   -4.1730    6.1469 C.ar      1 <0>         0.1557
      7 N1          1.1644   -3.3692    5.0589 N.am      1 <0>        -0.6904
      8 C7          0.7742   -3.9380    3.9011 C.2       1 <0>         0.7173
      9 O1          0.8273   -5.1455    3.7686 O.2       1 <0>        -0.5360
     10 N2          0.3250   -3.1683    2.8900 N.am      1 <0>        -0.5375
     11 N3          0.2638   -1.7769    3.0426 N.am      1 <0>        -0.5106
     12 C8         -0.1854   -1.0072    2.0315 C.2       1 <0>         0.5014
     13 O2         -0.5366   -1.5190    0.9896 O.2       1 <0>        -0.5260
     14 C9         -0.2512    0.4894    2.1957 C.3       1 <0>        -0.0181
     15 N4         -0.7555    1.0962    0.9566 N.4       1 <0>        -0.3917
     16 C10         0.2021    0.9192   -0.1441 C.3       1 <0>        -0.0074
     17 C11        -0.3928    1.4934   -1.4321 C.3       1 <0>         0.0355
     18 N5         -0.7050    2.9155   -1.2330 N.pl3     1 <0>        -0.4786
     19 C12        -1.6629    3.0924   -0.1326 C.3       1 <0>         0.0261
     20 C13        -1.0680    2.5183    1.1553 C.3       1 <0>         0.0044
     21 C14        -1.1819    3.4901   -2.4061 C.ar      1 <0>         0.3252
     22 C15        -1.0222    4.8567   -2.6198 C.ar      1 <0>        -0.0771
     23 C16        -1.4967    5.4137   -3.7944 C.ar      1 <0>         0.0005
     24 C17        -2.1269    4.5847   -4.7135 C.ar      1 <0>        -0.2235
     25 C18        -2.2556    3.2394   -4.4338 C.ar      1 <0>         0.1805
     26 N6         -1.7885    2.7340   -3.3075 N.ar      1 <0>        -0.4932
     27 C19        -2.6644    5.1486   -6.0035 C.3       1 <0>         0.5178
     28 F1         -3.2484    4.1222   -6.7536 F         1 <0>        -0.1678
     29 F2         -3.6258    6.1248   -5.7210 F         1 <0>        -0.1672
     30 F3         -1.6179    5.7223   -6.7335 F         1 <0>        -0.1664
     31 Cl1        -0.2328    5.8469   -1.4323 Cl        1 <0>        -0.0154
     32 Cl2         2.6870   -6.7581    9.6466 Cl        1 <0>        -0.0586
     33 H1          0.7268   -2.8247    7.6097 H         1 <0>         0.1345
     34 H2          1.3546   -4.2451    9.5191 H         1 <0>         0.1412
     35 H3          3.0466   -7.1067    6.8437 H         1 <0>         0.1410
     36 H4          2.4132   -5.6970    4.9284 H         1 <0>         0.1489
     37 H5          1.1993   -2.2735    5.1491 H         1 <0>         0.4142
     38 H6          0.0064   -3.6325    1.9450 H         1 <0>         0.4805
     39 H7          0.5824   -1.3127    3.9876 H         1 <0>         0.4498
     40 H8         -0.9273    0.7377    3.0271 H         1 <0>         0.1683
     41 H9          0.7545    0.8791    2.4120 H         1 <0>         0.1649
     42 H10         1.1375    1.4461    0.0954 H         1 <0>         0.1365
     43 H11         0.4095   -0.1524   -0.2809 H         1 <0>         0.1543
     44 H12         0.3343    1.3878   -2.2507 H         1 <0>         0.1287
     45 H13        -1.3131    0.9471   -1.6863 H         1 <0>         0.0891
     46 H14        -1.8705    4.1640    0.0041 H         1 <0>         0.1320
     47 H15        -2.5982    2.5654   -0.3723 H         1 <0>         0.0790
     48 H16        -1.7948    2.6230    1.9744 H         1 <0>         0.1476
     49 H17        -0.1474    3.0639    1.4100 H         1 <0>         0.1446
     50 H18        -1.3836    6.4698   -3.9899 H         1 <0>         0.1677
     51 H19        -2.7447    2.5915   -5.1461 H         1 <0>         0.1869
     52 H20        -1.6870    0.5789    0.6834 H         1 <0>         0.4509
@<TRIPOS>BOND
     1    1    6 ar
     2    1    2 ar
     3    1   33 1
     4    2    3 ar
     5    2   34 1
     6    3    4 ar
     7    3   32 1
     8    4    5 ar
     9    4   35 1
    10    5    6 ar
    11    5   36 1
    12    6    7 1
    13    7    8 am
    14    7   37 1
    15    8    9 2
    16    8   10 am
    17   10   11 1
    18   10   38 1
    19   11   12 am
    20   11   39 1
    21   12   13 2
    22   12   14 1
    23   14   15 1
    24   14   40 1
    25   14   41 1
    26   15   20 1
    27   15   16 1
    28   15   52 1
    29   16   17 1
    30   16   42 1
    31   16   43 1
    32   17   18 1
    33   17   44 1
    34   17   45 1
    35   18   19 1
    36   18   21 1
    37   19   20 1
    38   19   46 1
    39   19   47 1
    40   20   48 1
    41   20   49 1
    42   21   26 ar
    43   21   22 ar
    44   22   23 ar
    45   22   31 1
    46   23   24 ar
    47   23   50 1
    48   24   25 ar
    49   24   27 1
    50   25   26 ar
    51   25   51 1
    52   27   28 1
    53   27   29 1
    54   27   30 1
@<TRIPOS>MOLECULE
ZINC08584793
   63    65     0     0     0
SMALL
USER_CHARGES

@<TRIPOS>ATOM
      1 C1         -0.2636    1.4449    0.0366 C.3       1 <0>        -0.1877
      2 C2         -0.0339   -0.0673   -0.0010 C.3       1 <0>        -0.0192
      3 N1          0.8228   -0.4606    1.1256 N.4       1 <0>        -0.3822
      4 C3          0.1113   -0.2220    2.3885 C.3       1 <0>        -0.0143
      5 C4          1.0526   -0.4946    3.5635 C.3       1 <0>        -0.1893
      6 C5          1.1556   -1.8870    1.0130 C.3       1 <0>        -0.0270
      7 C6          2.0039   -2.1155   -0.2396 C.3       1 <0>         0.0971
      8 N2          2.3358   -3.5380   -0.3519 N.am      1 <0>        -0.7324
      9 C7          3.0814   -3.9764   -1.3854 C.2       1 <0>         0.5756
     10 O1          3.4786   -3.1914   -2.2248 O.2       1 <0>        -0.5246
     11 C8          3.4157   -5.4089   -1.4985 C.ar      1 <0>        -0.1588
     12 C9          2.9541   -6.3119   -0.5366 C.ar      1 <0>        -0.0660
     13 C10         3.2624   -7.6509   -0.6435 C.ar      1 <0>        -0.1411
     14 C11         4.0329   -8.1018   -1.7055 C.ar      1 <0>         0.2009
     15 C12         4.5053   -7.2044   -2.6687 C.ar      1 <0>         0.0943
     16 C13         4.1891   -5.8633   -2.5708 C.ar      1 <0>        -0.0539
     17 N3          5.3026   -7.6712   -3.7208 N.am      1 <0>        -0.6523
     18 C14         5.7811   -8.9288   -3.7172 C.2       1 <0>         0.5219
     19 O2          6.3659   -9.3514   -4.6922 O.2       1 <0>        -0.4983
     20 C15         5.5979   -9.8179   -2.5133 C.3       1 <0>         0.1603
     21 H1          5.5529  -10.8591   -2.8325 H         1 <0>         0.1445
     22 N4          4.3443   -9.4565   -1.8365 N.pl3     1 <0>        -0.7413
     23 C16         6.7736   -9.6274   -1.5529 C.3       1 <0>        -0.6444
     24 S1          6.6282  -10.8025   -0.1786 S.o2      1 <0>         2.4165
     25 O3          5.4667  -10.4752    0.5717 O.2       1 <0>        -0.9150
     26 O4          6.7686  -12.1186   -0.6958 O.2       1 <0>        -0.9073
     27 C17         8.0881  -10.4232    0.8291 C.3       1 <0>        -0.5703
     28 C18         8.1166  -11.3292    2.0330 C.ar      1 <0>        -0.1002
     29 C19         7.4885  -10.9438    3.2027 C.ar      1 <0>        -0.0584
     30 C20         7.5139  -11.7737    4.3073 C.ar      1 <0>        -0.1478
     31 C21         8.1688  -12.9922    4.2431 C.ar      1 <0>         0.1314
     32 C22         8.7974  -13.3783    3.0718 C.ar      1 <0>        -0.1448
     33 C23         8.7665  -12.5486    1.9653 C.ar      1 <0>         0.0058
     34 Cl1         9.5492  -13.0345    0.4939 Cl        1 <0>        -0.0317
     35 F1          8.1947  -13.8034    5.3231 F         1 <0>        -0.1234
     36 H2          0.6976    1.9575    0.0745 H         1 <0>         0.0809
     37 H3         -0.8045    1.7526   -0.8583 H         1 <0>         0.1077
     38 H4         -0.8475    1.7018    0.9204 H         1 <0>         0.0814
     39 H5         -0.9917   -0.5823    0.0738 H         1 <0>         0.1320
     40 H6          0.4518   -0.3379   -0.9386 H         1 <0>         0.1335
     41 H7         -0.2256    0.8139    2.4255 H         1 <0>         0.1352
     42 H8         -0.7502   -0.8867    2.4513 H         1 <0>         0.1311
     43 H9          0.5619   -0.2124    4.4950 H         1 <0>         0.1077
     44 H10         1.3017   -1.5554    3.5909 H         1 <0>         0.0803
     45 H11         1.9645    0.0898    3.4417 H         1 <0>         0.0807
     46 H12         1.7165   -2.1998    1.8937 H         1 <0>         0.1401
     47 H13         0.2373   -2.4698    0.9412 H         1 <0>         0.1381
     48 H14         1.4430   -1.8026   -1.1203 H         1 <0>         0.0905
     49 H15         2.9223   -1.5327   -0.1678 H         1 <0>         0.0903
     50 H16         2.0190   -4.1642    0.3177 H         1 <0>         0.4076
     51 H17         2.3559   -5.9601    0.2909 H         1 <0>         0.1292
     52 H18         2.9048   -8.3487    0.0992 H         1 <0>         0.1482
     53 H19         4.5419   -5.1675   -3.3177 H         1 <0>         0.1457
     54 H20         5.5124   -7.0809   -4.4613 H         1 <0>         0.4190
     55 H21         3.7499  -10.1403   -1.4900 H         1 <0>         0.4246
     56 H22         7.7089   -9.8034   -2.0841 H         1 <0>         0.1552
     57 H23         6.7631   -8.6095   -1.1631 H         1 <0>         0.1409
     58 H24         8.9893  -10.5786    0.2360 H         1 <0>         0.1489
     59 H25         8.0434   -9.3847    1.1569 H         1 <0>         0.1501
     60 H26         6.9779   -9.9935    3.2532 H         1 <0>         0.1512
     61 H27         7.0233  -11.4718    5.2208 H         1 <0>         0.1516
     62 H28         9.3087  -14.3282    3.0208 H         1 <0>         0.1566
     63 H29         1.6714    0.0850    1.1094 H         1 <0>         0.4250
@<TRIPOS>BOND
     1    1    2 1
     2    1   36 1
     3    1   37 1
     4    1   38 1
     5    2    3 1
     6    2   39 1
     7    2   40 1
     8    3    4 1
     9    3    6 1
    10    3   63 1
    11    4    5 1
    12    4   41 1
    13    4   42 1
    14    5   43 1
    15    5   44 1
    16    5   45 1
    17    6    7 1
    18    6   46 1
    19    6   47 1
    20    7    8 1
    21    7   48 1
    22    7   49 1
    23    8    9 am
    24    8   50 1
    25    9   10 2
    26    9   11 1
    27   11   16 ar
    28   11   12 ar
    29   12   13 ar
    30   12   51 1
    31   13   14 ar
    32   13   52 1
    33   14   22 1
    34   14   15 ar
    35   15   16 ar
    36   15   17 1
    37   16   53 1
    38   17   18 am
    39   17   54 1
    40   18   19 2
    41   18   20 1
    42   20   21 1
    43   20   22 1
    44   20   23 1
    45   22   55 1
    46   23   24 1
    47   23   56 1
    48   23   57 1
    49   24   25 2
    50   24   26 2
    51   24   27 1
    52   27   28 1
    53   27   58 1
    54   27   59 1
    55   28   33 ar
    56   28   29 ar
    57   29   30 ar
    58   29   60 1
    59   30   31 ar
    60   30   61 1
    61   31   32 ar
    62   31   35 1
    63   32   33 ar
    64   32   62 1
    65   33   34 1
@<TRIPOS>MOLECULE
ZINC12491050
   77    80     0     0     0
SMALL
USER_CHARGES

@<TRIPOS>ATOM
      1 C1         -0.4248    1.5417   -0.8080 C.3       1 <0>        -0.1839
      2 C2         -0.0762    0.0571   -0.6850 C.3       1 <0>         0.1313
      3 C3         -1.3615   -0.7772   -0.7136 C.3       1 <0>        -0.1498
      4 C4         -0.9770   -2.2559   -0.6667 C.3       1 <0>        -0.1122
      5 C5         -0.1851   -2.5784    0.5796 C.3       1 <0>        -0.0637
      6 C6          1.0390   -1.6645    0.7711 C.3       1 <0>        -0.0585
      7 H1          1.8639   -1.9349    0.1120 H         1 <0>         0.1114
      8 C7          0.6385   -0.1933    0.6405 C.3       1 <0>        -0.1053
      9 C8          1.3760   -1.9016    2.2730 C.3       1 <0>        -0.0652
     10 C9         -0.0075   -1.9810    2.9547 C.3       1 <0>        -0.1361
     11 C10        -1.0088   -2.4100    1.8630 C.3       1 <0>         0.0251
     12 H2         -1.7669   -1.6391    1.7245 H         1 <0>         0.1446
     13 N1         -1.6420   -3.6840    2.2291 N.4       1 <0>        -0.5050
     14 C11        -2.5096   -3.4817    3.3972 C.3       1 <0>         0.0529
     15 C12        -3.1591   -4.7886    3.7728 C.ar      1 <0>        -0.1984
     16 C13        -4.4582   -5.0522    3.3831 C.ar      1 <0>        -0.0528
     17 C14        -5.0549   -6.2507    3.7277 C.ar      1 <0>        -0.1508
     18 C15        -4.3534   -7.1888    4.4627 C.ar      1 <0>        -0.0434
     19 C16        -3.0543   -6.9303    4.8543 C.ar      1 <0>        -0.2028
     20 C17        -2.4514   -5.7304    4.5052 C.ar      1 <0>         0.1524
     21 O1         -1.1715   -5.4760    4.8845 O.3       1 <0>        -0.3272
     22 C18        -0.5038   -6.4912    5.6366 C.3       1 <0>         0.0227
     23 C19         2.1844   -0.7298    2.8335 C.3       1 <0>        -0.1478
     24 C20         2.1387   -3.2160    2.4512 C.3       1 <0>        -0.1524
     25 C21         0.3102   -4.0235    0.4944 C.3       1 <0>        -0.1439
     26 C22         1.3272   -4.1479   -0.6419 C.3       1 <0>        -0.1393
     27 C23         1.7810   -5.5805   -0.7552 C.2       1 <0>         0.5125
     28 O2          1.3350   -6.4193   -0.0014 O.2       1 <0>        -0.5443
     29 N2          2.6826   -5.9294   -1.6943 N.am      1 <0>        -0.7242
     30 C24         3.1238   -7.3221   -1.8045 C.3       1 <0>         0.1674
     31 C25         4.1255   -7.4446   -2.9237 C.ar      1 <0>        -0.1717
     32 C26         3.7040   -7.7164   -4.2165 C.ar      1 <0>        -0.0556
     33 C27         4.6608   -7.8204   -5.2143 C.ar      1 <0>        -0.1718
     34 C28         5.9937   -7.6510   -4.8896 C.ar      1 <0>         0.1124
     35 N3          6.3582   -7.3939   -3.6488 N.ar      1 <0>        -0.4826
     36 C29         5.4751   -7.2820   -2.6756 C.ar      1 <0>         0.1198
     37 O3          0.7732   -0.3274   -1.7680 O.3       1 <0>        -0.5543
     38 H3          0.4896    2.1339   -0.7722 H         1 <0>         0.0686
     39 H4         -0.9349    1.7179   -1.7551 H         1 <0>         0.0623
     40 H5         -1.0776    1.8311    0.0156 H         1 <0>         0.0655
     41 H6         -1.9785   -0.5307    0.1504 H         1 <0>         0.0703
     42 H7         -1.9133   -0.5702   -1.6306 H         1 <0>         0.0776
     43 H8         -1.8836   -2.8609   -0.6800 H         1 <0>         0.0635
     44 H9         -0.3759   -2.4964   -1.5437 H         1 <0>         0.0930
     45 H10         1.5330    0.4277    0.6888 H         1 <0>         0.0828
     46 H11        -0.0264    0.0720    1.4624 H         1 <0>         0.0771
     47 H12         0.0121   -2.7203    3.7554 H         1 <0>         0.0913
     48 H13        -0.2844   -1.0050    3.3532 H         1 <0>         0.1043
     49 H14        -2.1941   -4.0200    1.4543 H         1 <0>         0.4236
     50 H15        -1.9131   -3.1187    4.2342 H         1 <0>         0.1386
     51 H16        -3.2798   -2.7494    3.1553 H         1 <0>         0.1364
     52 H17        -5.0082   -4.3211    2.8091 H         1 <0>         0.1391
     53 H18        -6.0707   -6.4545    3.4228 H         1 <0>         0.1379
     54 H19        -4.8218   -8.1242    4.7310 H         1 <0>         0.1384
     55 H20        -2.5069   -7.6633    5.4283 H         1 <0>         0.1407
     56 H21        -0.4584   -7.4081    5.0490 H         1 <0>         0.0654
     57 H22         0.5076   -6.1614    5.8742 H         1 <0>         0.1105
     58 H23        -1.0513   -6.6783    6.5603 H         1 <0>         0.0659
     59 H24         1.6044    0.1885    2.7421 H         1 <0>         0.0652
     60 H25         2.4104   -0.9137    3.8839 H         1 <0>         0.0621
     61 H26         3.1144   -0.6293    2.2740 H         1 <0>         0.0669
     62 H27         2.6267   -3.4828    1.5138 H         1 <0>         0.0676
     63 H28         2.8907   -3.0968    3.2313 H         1 <0>         0.0680
     64 H29         1.4421   -4.0046    2.7356 H         1 <0>         0.0576
     65 H30         0.7822   -4.3019    1.4366 H         1 <0>         0.1019
     66 H31        -0.5335   -4.6860    0.3010 H         1 <0>         0.0693
     67 H32         0.8647   -3.8381   -1.5790 H         1 <0>         0.1040
     68 H33         2.1860   -3.5102   -0.4323 H         1 <0>         0.1069
     69 H34         3.0394   -5.2585   -2.2972 H         1 <0>         0.4045
     70 H35         3.5863   -7.6319   -0.8674 H         1 <0>         0.0822
     71 H36         2.2650   -7.9598   -2.0141 H         1 <0>         0.0802
     72 H37         2.6553   -7.8443   -4.4407 H         1 <0>         0.1359
     73 H38         4.3686   -8.0315   -6.2323 H         1 <0>         0.1409
     74 H39         6.7453   -7.7305   -5.6611 H         1 <0>         0.1614
     75 H40         5.8111   -7.0654   -1.6723 H         1 <0>         0.1558
     76 H41         0.3789   -0.1996   -2.6416 H         1 <0>         0.3793
     77 H42        -0.9290   -4.3618    2.4531 H         1 <0>         0.4279
@<TRIPOS>BOND
     1    1    2 1
     2    1   38 1
     3    1   39 1
     4    1   40 1
     5    2    8 1
     6    2    3 1
     7    2   37 1
     8    3    4 1
     9    3   41 1
    10    3   42 1
    11    4    5 1
    12    4   43 1
    13    4   44 1
    14    5   11 1
    15    5    6 1
    16    5   25 1
    17    6    7 1
    18    6    8 1
    19    6    9 1
    20    8   45 1
    21    8   46 1
    22    9   10 1
    23    9   23 1
    24    9   24 1
    25   10   11 1
    26   10   47 1
    27   10   48 1
    28   11   12 1
    29   11   13 1
    30   13   14 1
    31   13   49 1
    32   13   77 1
    33   14   15 1
    34   14   50 1
    35   14   51 1
    36   15   20 ar
    37   15   16 ar
    38   16   17 ar
    39   16   52 1
    40   17   18 ar
    41   17   53 1
    42   18   19 ar
    43   18   54 1
    44   19   20 ar
    45   19   55 1
    46   20   21 1
    47   21   22 1
    48   22   56 1
    49   22   57 1
    50   22   58 1
    51   23   59 1
    52   23   60 1
    53   23   61 1
    54   24   62 1
    55   24   63 1
    56   24   64 1
    57   25   26 1
    58   25   65 1
    59   25   66 1
    60   26   27 1
    61   26   67 1
    62   26   68 1
    63   27   28 2
    64   27   29 am
    65   29   30 1
    66   29   69 1
    67   30   31 1
    68   30   70 1
    69   30   71 1
    70   31   36 ar
    71   31   32 ar
    72   32   33 ar
    73   32   72 1
    74   33   34 ar
    75   33   73 1
    76   34   35 ar
    77   34   74 1
    78   35   36 ar
    79   36   75 1
    80   37   76 1
@<TRIPOS>MOLECULE
ZINC63588854
   66    69     0     0     0
SMALL
USER_CHARGES

@<TRIPOS>ATOM
      1 C1          5.2959   -7.3967   -1.0348 C.3       1 <0>        -0.1542
      2 C2          3.9974   -6.8851   -0.4077 C.3       1 <0>         0.0533
      3 O1          2.8868   -7.3049   -1.2029 O.3       1 <0>        -0.3147
      4 C3          1.6494   -6.9308   -0.7814 C.ar      1 <0>         0.1139
      5 C4          1.5098   -6.1705    0.3705 C.ar      1 <0>        -0.1707
      6 C5          0.2534   -5.7905    0.7994 C.ar      1 <0>        -0.1054
      7 C6         -0.8704   -6.1692    0.0771 C.ar      1 <0>         0.1195
      8 C7         -0.7299   -6.9298   -1.0762 C.ar      1 <0>        -0.1320
      9 C8          0.5275   -7.3047   -1.5067 C.ar      1 <0>        -0.1176
     10 N1         -2.1451   -5.7846    0.5117 N.pl3     1 <0>        -0.6647
     11 C9         -3.2445   -6.4830    0.1043 C.2       1 <0>         0.7001
     12 N2         -3.1575   -7.8272   -0.1110 N.pl3     1 <0>        -0.7027
     13 C10        -4.2904   -8.5506   -0.6937 C.3       1 <0>         0.1408
     14 C11        -3.9345  -10.0325   -0.8282 C.3       1 <0>        -0.1102
     15 C12        -5.0998  -10.7766   -1.4277 C.2       1 <0>         0.0722
     16 C13        -5.2865  -11.0799   -2.7325 C.ar      1 <0>        -0.1653
     17 C14        -4.4916  -10.8169   -3.9381 C.ar      1 <0>        -0.0124
     18 C15        -4.9486  -11.2543   -5.1334 C.ar      1 <0>        -0.1502
     19 C16        -6.1597  -11.9505   -5.2496 C.ar      1 <0>         0.0554
     20 C17        -6.9449  -12.2298   -4.1878 C.ar      1 <0>        -0.2104
     21 C18        -6.5614  -11.8174   -2.8819 C.ar      1 <0>         0.3284
     22 N3         -7.1403  -11.9644   -1.7149 N.pl3     1 <0>        -0.5847
     23 C19        -6.2941  -11.3411   -0.6912 C.3       1 <0>         0.0606
     24 N4         -4.3961   -5.8555   -0.0821 N.2       1 <0>        -0.6710
     25 C20        -4.4409   -4.5171   -0.0591 C.2       1 <0>         0.5428
     26 O2         -3.4070   -3.8730   -0.0586 O.2       1 <0>        -0.5411
     27 C21        -5.7477   -3.8202   -0.0343 C.ar      1 <0>        -0.1016
     28 C22        -6.9296   -4.5530    0.0804 C.ar      1 <0>        -0.0778
     29 C23        -8.1459   -3.9016    0.1033 C.ar      1 <0>        -0.1174
     30 C24        -8.1987   -2.5232    0.0124 C.ar      1 <0>        -0.1196
     31 C25        -7.0273   -1.7848   -0.1026 C.ar      1 <0>         0.1362
     32 C26        -5.8002   -2.4301   -0.1197 C.ar      1 <0>        -0.0691
     33 N5         -7.0857   -0.3896   -0.1948 N.am      1 <0>        -0.6783
     34 C27        -6.1666    0.2768   -0.9212 C.2       1 <0>         0.5095
     35 O3         -5.3678   -0.3359   -1.5977 O.2       1 <0>        -0.5195
     36 C28        -6.1312    1.7831   -0.8927 C.3       1 <0>        -0.1746
     37 H1          6.1431   -7.0765   -0.4283 H         1 <0>         0.0816
     38 H2          5.2728   -8.4855   -1.0807 H         1 <0>         0.0670
     39 H3          5.3968   -6.9926   -2.0421 H         1 <0>         0.0680
     40 H4          3.8965   -7.2892    0.5995 H         1 <0>         0.0635
     41 H5          4.0205   -5.7963   -0.3618 H         1 <0>         0.0643
     42 H6          2.3840   -5.8761    0.9322 H         1 <0>         0.1363
     43 H7          0.1449   -5.1993    1.6966 H         1 <0>         0.1320
     44 H8         -1.6036   -7.2250   -1.6383 H         1 <0>         0.1313
     45 H9          0.6372   -7.8928   -2.4058 H         1 <0>         0.1365
     46 H10        -2.3455   -8.3041    0.1218 H         1 <0>         0.4176
     47 H11        -5.1613   -8.4433   -0.0472 H         1 <0>         0.0905
     48 H12        -4.5159   -8.1403   -1.6781 H         1 <0>         0.0861
     49 H13        -3.0635  -10.1398   -1.4747 H         1 <0>         0.1169
     50 H14        -3.7090  -10.4428    0.1561 H         1 <0>         0.1201
     51 H15        -3.5559  -10.2818   -3.8716 H         1 <0>         0.1609
     52 H16        -4.3654  -11.0619   -6.0218 H         1 <0>         0.1580
     53 H17        -6.4777  -12.2764   -6.2289 H         1 <0>         0.1609
     54 H18        -7.8696  -12.7692   -4.3308 H         1 <0>         0.1605
     55 H19        -5.9696  -12.0859    0.0355 H         1 <0>         0.1748
     56 H20        -6.8401  -10.5409   -0.1916 H         1 <0>         0.1760
     57 H21        -2.2465   -5.0218    1.1023 H         1 <0>         0.4330
     58 H22        -6.8924   -5.6300    0.1510 H         1 <0>         0.1351
     59 H23        -9.0596   -4.4706    0.1921 H         1 <0>         0.1308
     60 H24        -9.1535   -2.0186    0.0304 H         1 <0>         0.1303
     61 H25        -4.8883   -1.8577   -0.2042 H         1 <0>         0.1442
     62 H26        -7.7877    0.0979    0.2640 H         1 <0>         0.4142
     63 H27        -5.9572    2.1232    0.1282 H         1 <0>         0.0942
     64 H28        -5.3274    2.1399   -1.5365 H         1 <0>         0.0986
     65 H29        -7.0836    2.1757   -1.2490 H         1 <0>         0.0931
     66 H30        -7.9850  -12.4135   -1.5546 H         1 <0>         0.4561
@<TRIPOS>BOND
     1    1    2 1
     2    1   37 1
     3    1   38 1
     4    1   39 1
     5    2    3 1
     6    2   40 1
     7    2   41 1
     8    3    4 1
     9    4    9 ar
    10    4    5 ar
    11    5    6 ar
    12    5   42 1
    13    6    7 ar
    14    6   43 1
    15    7    8 ar
    16    7   10 1
    17    8    9 ar
    18    8   44 1
    19    9   45 1
    20   10   57 1
    21   10   11 1
    22   11   12 1
    23   11   24 2
    24   12   13 1
    25   12   46 1
    26   13   14 1
    27   13   47 1
    28   13   48 1
    29   14   15 1
    30   14   49 1
    31   14   50 1
    32   15   23 1
    33   15   16 2
    34   16   21 ar
    35   16   17 ar
    36   17   18 ar
    37   17   51 1
    38   18   19 ar
    39   18   52 1
    40   19   20 ar
    41   19   53 1
    42   20   21 ar
    43   20   54 1
    44   21   22 2
    45   22   23 1
    46   22   66 1
    47   23   55 1
    48   23   56 1
    49   24   25 1
    50   25   26 2
    51   25   27 1
    52   27   32 ar
    53   27   28 ar
    54   28   29 ar
    55   28   58 1
    56   29   30 ar
    57   29   59 1
    58   30   31 ar
    59   30   60 1
    60   31   32 ar
    61   31   33 1
    62   32   61 1
    63   33   34 am
    64   33   62 1
    65   34   35 2
    66   34   36 1
    67   36   63 1
    68   36   64 1
    69   36   65 1
@<TRIPOS>MOLECULE
ZINC09647494
   66    69     0     0     0
SMALL
USER_CHARGES
2-[[7,8-dimethyl-3-[(4-methyl-1-piperidyl)methyl]-9-thia-2,4-diazabicyclo[4.3.0]nona-1,3,5,7-tetraen-5-yl]amino]-1-(4-nitrophenyl)-propane-1,3-diol
@<TRIPOS>ATOM
      1 C1         -5.2914    3.9835    0.3334 C.3       1 <0>        -0.1194
      2 C2         -6.1105    3.8252   -0.9216 C.2       1 <0>        -0.1063
      3 C3         -7.4036    4.1807   -0.9371 C.2       1 <0>        -0.1149
      4 S1         -7.9173    3.8113   -2.6040 S.3       1 <0>         0.1512
      5 C4         -6.3813    3.1893   -3.2348 C.ar      1 <0>         0.1256
      6 C5         -5.5101    3.2808   -2.1269 C.ar      1 <0>        -0.2066
      7 C6         -4.1775    2.8440   -2.3620 C.ar      1 <0>         0.4991
      8 N1         -3.8508    2.3848   -3.5593 N.ar      1 <0>        -0.5803
      9 C7         -4.7217    2.3222   -4.5504 C.ar      1 <0>         0.3145
     10 N2         -5.9704    2.7179   -4.3953 N.ar      1 <0>        -0.4937
     11 C8         -4.2789    1.7875   -5.8880 C.3       1 <0>         0.0845
     12 C9         -5.8183   -0.0185   -5.4096 C.3       1 <0>        -0.0003
     13 C10        -5.9486   -1.5413   -5.3313 C.3       1 <0>        -0.1418
     14 C11        -5.7511   -2.1380   -6.7276 C.3       1 <0>        -0.1034
     15 C12        -4.3812   -1.7155   -7.2655 C.3       1 <0>        -0.1431
     16 C13        -4.2963   -0.1877   -7.2876 C.3       1 <0>         0.0003
     17 C14        -5.8197   -3.6643   -6.6457 C.3       1 <0>        -0.1537
     18 N3         -3.2357    2.8933   -1.3501 N.pl3     1 <0>        -0.6825
     19 C15        -1.8354    2.5719   -1.6364 C.3       1 <0>         0.1242
     20 H1         -1.7899    1.7844   -2.3886 H         1 <0>         0.1112
     21 C16        -1.1226    3.8200   -2.1609 C.3       1 <0>         0.0679
     22 O1         -1.1164    4.8266   -1.1467 O.3       1 <0>        -0.5701
     23 C17        -1.1497    2.0935   -0.3551 C.3       1 <0>         0.1389
     24 H2         -1.1561    2.8965    0.3820 H         1 <0>         0.1333
     25 C18        -1.8887    0.9009    0.1950 C.ar      1 <0>        -0.0693
     26 C19        -1.6053   -0.3665   -0.2787 C.ar      1 <0>        -0.1104
     27 C20        -2.2879   -1.4598    0.2211 C.ar      1 <0>        -0.0482
     28 C21        -3.2531   -1.2858    1.1952 C.ar      1 <0>        -0.0398
     29 C22        -3.5362   -0.0185    1.6692 C.ar      1 <0>        -0.0461
     30 C23        -2.8539    1.0749    1.1691 C.ar      1 <0>        -0.1130
     31 N4         -3.9840   -2.4564    1.7303 N.pl3     1 <0>         0.0222
     32 O2         -4.8348   -2.3031    2.5883 O.2       1 <0>        -0.1487
     33 O3         -3.7346   -3.5731    1.3127 O.3       1 <0>        -0.1521
     34 O4          0.1999    1.7249   -0.6462 O.3       1 <0>        -0.5273
     35 C24        -8.2264    4.7561    0.1867 C.3       1 <0>        -0.0806
     36 H3         -5.2587    3.0342    0.8681 H         1 <0>         0.0781
     37 H4         -4.2782    4.2872    0.0702 H         1 <0>         0.0717
     38 H5         -5.7448    4.7434    0.9698 H         1 <0>         0.0903
     39 H6         -4.8594    2.2619   -6.6792 H         1 <0>         0.1566
     40 H7         -3.2207    2.0045   -6.0337 H         1 <0>         0.1531
     41 H8         -5.9443    0.4084   -4.4146 H         1 <0>         0.1166
     42 H9         -6.5857    0.3779   -6.0745 H         1 <0>         0.1376
     43 H10        -6.9396   -1.8032   -4.9605 H         1 <0>         0.1108
     44 H11        -5.1903   -1.9372   -4.6558 H         1 <0>         0.0841
     45 H12        -6.5325   -1.7735   -7.3944 H         1 <0>         0.0903
     46 H13        -4.2522   -2.1019   -8.2765 H         1 <0>         0.1151
     47 H14        -3.5982   -2.1141   -6.6204 H         1 <0>         0.0877
     48 H15        -5.0708    0.2096   -7.9437 H         1 <0>         0.1343
     49 H16        -3.3168    0.1164   -7.6567 H         1 <0>         0.1324
     50 H17        -5.0395   -4.0277   -5.9770 H         1 <0>         0.0613
     51 H18        -6.7952   -3.9641   -6.2628 H         1 <0>         0.0671
     52 H19        -5.6734   -4.0883   -7.6392 H         1 <0>         0.0682
     53 H20        -3.5025    3.1408   -0.4509 H         1 <0>         0.4212
     54 H21        -0.0965    3.5671   -2.4280 H         1 <0>         0.0690
     55 H22        -1.6455    4.1941   -3.0410 H         1 <0>         0.0522
     56 H23        -0.6795    5.6480   -1.4104 H         1 <0>         0.3911
     57 H24        -0.8514   -0.5024   -1.0400 H         1 <0>         0.1457
     58 H25        -2.0667   -2.4499   -0.1493 H         1 <0>         0.1574
     59 H26        -4.2905    0.1175    2.4299 H         1 <0>         0.1591
     60 H27        -3.0753    2.0650    1.5391 H         1 <0>         0.1456
     61 H28         0.2856    1.0761   -1.3581 H         1 <0>         0.3765
     62 H29        -9.2441    4.9325   -0.1615 H         1 <0>         0.0832
     63 H30        -8.2441    4.0541    1.0204 H         1 <0>         0.0920
     64 H31        -7.7860    5.6979    0.5142 H         1 <0>         0.0926
     65 N5         -4.4699    0.3226   -5.9111 N.4       1 <0>        -0.3899
     66 H32        -3.7679   -0.1148   -5.3028 H         1 <0>         0.4276
@<TRIPOS>BOND
     1    1    2 1
     2    1   36 1
     3    1   37 1
     4    1   38 1
     5    2    6 1
     6    2    3 2
     7    3    4 1
     8    3   35 1
     9    4    5 1
    10    5   10 ar
    11    5    6 ar
    12    6    7 ar
    13    7    8 ar
    14    7   18 1
    15    8    9 ar
    16    9   10 ar
    17    9   11 1
    18   11   39 1
    19   11   40 1
    20   11   65 1
    21   12   13 1
    22   12   41 1
    23   12   42 1
    24   12   65 1
    25   13   14 1
    26   13   43 1
    27   13   44 1
    28   14   15 1
    29   14   17 1
    30   14   45 1
    31   15   16 1
    32   15   46 1
    33   15   47 1
    34   16   48 1
    35   16   49 1
    36   16   65 1
    37   17   50 1
    38   17   51 1
    39   17   52 1
    40   18   19 1
    41   18   53 1
    42   19   20 1
    43   19   21 1
    44   19   23 1
    45   21   22 1
    46   21   54 1
    47   21   55 1
    48   22   56 1
    49   23   24 1
    50   23   25 1
    51   23   34 1
    52   25   30 ar
    53   25   26 ar
    54   26   27 ar
    55   26   57 1
    56   27   28 ar
    57   27   58 1
    58   28   29 ar
    59   28   31 1
    60   29   30 ar
    61   29   59 1
    62   30   60 1
    63   31   32 2
    64   31   33 1
    65   34   61 1
    66   35   62 1
    67   35   63 1
    68   35   64 1
    69   65   66 1
@<TRIPOS>MOLECULE
ZINC13488201
   76    80     0     0     0
SMALL
USER_CHARGES
N-[5-[2-amino-3-cyano-6-(2-hydroxyphenyl)-4-pyridyl]-2-(1-piperidyl)phenyl]-3-(1-piperidyl)propanamide
@<TRIPOS>ATOM
      1 C1         -1.0090    7.7424    0.0756 C.ar      1 <0>        -0.1778
      2 C2          0.2135    8.3921    0.0645 C.ar      1 <0>        -0.0466
      3 C3          1.3889    7.6666    0.0409 C.ar      1 <0>        -0.1837
      4 C4          1.3498    6.2810    0.0336 C.ar      1 <0>         0.2311
      5 C5          0.1159    5.6214    0.0395 C.ar      1 <0>        -0.1863
      6 C6         -1.0638    6.3642    0.0633 C.ar      1 <0>        -0.0433
      7 C7          0.0632    4.1412    0.0266 C.ar      1 <0>         0.2931
      8 C8         -1.1725    3.5006    0.0381 C.ar      1 <0>        -0.2221
      9 C9         -1.2180    2.1077    0.0200 C.ar      1 <0>         0.1122
     10 C10         0.0045    1.3998    0.0013 C.ar      1 <0>        -0.1698
     11 C11         1.2079    2.1257   -0.0088 C.ar      1 <0>         0.4886
     12 N1          1.1965    3.4476    0.0039 N.ar      1 <0>        -0.5698
     13 N2          2.4160    1.4505   -0.0320 N.pl3     1 <0>        -0.8571
     14 C12         0.0171   -0.0321   -0.0130 C.1       1 <0>         0.2655
     15 N3          0.0271   -1.1680   -0.0243 N.1       1 <0>        -0.4203
     16 C13        -2.5126    1.3893    0.0257 C.ar      1 <0>        -0.0560
     17 C14        -3.4910    1.7205    0.9640 C.ar      1 <0>        -0.0866
     18 C15        -4.6970    1.0522    0.9697 C.ar      1 <0>        -0.1293
     19 C16        -4.9418    0.0477    0.0421 C.ar      1 <0>         0.0829
     20 C17        -3.9666   -0.2881   -0.8991 C.ar      1 <0>         0.1633
     21 C18        -2.7576    0.3844   -0.9106 C.ar      1 <0>        -0.0887
     22 N4         -4.2145   -1.3015   -1.8351 N.am      1 <0>        -0.6593
     23 C19        -3.7163   -1.2024   -3.0835 C.2       1 <0>         0.5190
     24 O1         -2.9869   -0.2778   -3.3738 O.2       1 <0>        -0.5227
     25 C20        -4.0656   -2.2403   -4.1188 C.3       1 <0>        -0.1708
     26 C21        -3.3751   -1.8955   -5.4399 C.3       1 <0>         0.0086
     27 N5         -3.7156   -2.9072   -6.4490 N.4       1 <0>        -0.3971
     28 C22        -3.1587   -4.2175   -6.0893 C.3       1 <0>        -0.0113
     29 C23        -3.6528   -5.2730   -7.0812 C.3       1 <0>        -0.1458
     30 C24        -3.2145   -4.8821   -8.4954 C.3       1 <0>        -0.1416
     31 C25        -3.7673   -3.4932   -8.8269 C.3       1 <0>        -0.1463
     32 C26        -3.2700   -2.4893   -7.7844 C.3       1 <0>        -0.0036
     33 N6         -6.1638   -0.6271    0.0512 N.pl3     1 <0>        -0.5030
     34 C27        -7.2708    0.2848   -0.2641 C.3       1 <0>         0.0598
     35 C28        -8.5709   -0.5129   -0.3883 C.3       1 <0>        -0.1156
     36 C29        -8.8449   -1.2416    0.9301 C.3       1 <0>        -0.1268
     37 C30        -7.6558   -2.1481    1.2599 C.3       1 <0>        -0.1160
     38 C31        -6.3822   -1.3030    1.3364 C.3       1 <0>         0.0536
     39 O2          2.5045    5.5666    0.0161 O.3       1 <0>        -0.5279
     40 H1         -1.9233    8.3170    0.0944 H         1 <0>         0.1294
     41 H2          0.2485    9.4715    0.0746 H         1 <0>         0.1323
     42 H3          2.3393    8.1795    0.0323 H         1 <0>         0.1339
     43 H4         -2.0194    5.8611    0.0717 H         1 <0>         0.1293
     44 H5         -2.0860    4.0765    0.0561 H         1 <0>         0.1514
     45 H6          3.3608    2.0138   -0.0400 H         1 <0>         0.4384
     46 H7          2.4313    0.3507   -0.0424 H         1 <0>         0.4361
     47 H8         -3.3035    2.5013    1.6862 H         1 <0>         0.1359
     48 H9         -5.4528    1.3105    1.6965 H         1 <0>         0.1330
     49 H10        -2.0034    0.1292   -1.6403 H         1 <0>         0.1435
     50 H11        -4.8157   -2.1777   -1.5508 H         1 <0>         0.4458
     51 H12        -3.7273   -3.2291   -3.7754 H         1 <0>         0.1179
     52 H13        -5.1553   -2.2571   -4.2681 H         1 <0>         0.1218
     53 H14        -3.7134   -0.9067   -5.7833 H         1 <0>         0.1412
     54 H15        -2.2854   -1.8787   -5.2906 H         1 <0>         0.1355
     55 H16        -2.0602   -4.1704   -6.1216 H         1 <0>         0.1270
     56 H17        -3.4843   -4.4882   -5.0741 H         1 <0>         0.1295
     57 H18        -3.2235   -6.2514   -6.8196 H         1 <0>         0.1119
     58 H19        -4.7504   -5.3310   -7.0385 H         1 <0>         0.0887
     59 H20        -2.1159   -4.8645   -8.5470 H         1 <0>         0.0812
     60 H21        -3.6037   -5.6164   -9.2160 H         1 <0>         0.0947
     61 H22        -3.4206   -3.1894   -9.8256 H         1 <0>         0.1128
     62 H23        -4.8668   -3.5235   -8.8140 H         1 <0>         0.0887
     63 H24        -3.6774   -1.4931   -8.0118 H         1 <0>         0.1321
     64 H25        -2.1710   -2.4503   -7.8087 H         1 <0>         0.1267
     65 H26        -7.3731    1.0289    0.5395 H         1 <0>         0.0435
     66 H27        -7.0637    0.7979   -1.2148 H         1 <0>         0.0751
     67 H28        -9.4020    0.1728   -0.6099 H         1 <0>         0.0718
     68 H29        -8.4744   -1.2470   -1.2018 H         1 <0>         0.0688
     69 H30        -8.9818   -0.5044    1.7349 H         1 <0>         0.0627
     70 H31        -9.7564   -1.8493    0.8306 H         1 <0>         0.0687
     71 H32        -7.8287   -2.6423    2.2273 H         1 <0>         0.0729
     72 H33        -7.5460   -2.9095    0.4737 H         1 <0>         0.0701
     73 H34        -5.5237   -1.9538    1.5590 H         1 <0>         0.0777
     74 H35        -6.4887   -0.5514    2.1325 H         1 <0>         0.0441
     75 H36         2.4710    4.4671    0.0103 H         1 <0>         0.4341
     76 H37        -4.8109   -3.0045   -6.4762 H         1 <0>         0.4389
@<TRIPOS>BOND
     1    1    6 ar
     2    1    2 ar
     3    1   40 1
     4    2    3 ar
     5    2   41 1
     6    3    4 ar
     7    3   42 1
     8    4    5 ar
     9    4   39 1
    10    5    6 ar
    11    5    7 1
    12    6   43 1
    13    7   12 ar
    14    7    8 ar
    15    8    9 ar
    16    8   44 1
    17    9   10 ar
    18    9   16 1
    19   10   11 ar
    20   10   14 1
    21   11   12 ar
    22   11   13 1
    23   13   45 1
    24   13   46 1
    25   14   15 3
    26   16   21 ar
    27   16   17 ar
    28   17   18 ar
    29   17   47 1
    30   18   19 ar
    31   18   48 1
    32   19   20 ar
    33   19   33 1
    34   20   21 ar
    35   20   22 1
    36   21   49 1
    37   22   23 am
    38   22   50 1
    39   23   24 2
    40   23   25 1
    41   25   26 1
    42   25   51 1
    43   25   52 1
    44   26   27 1
    45   26   53 1
    46   26   54 1
    47   27   32 1
    48   27   28 1
    49   27   76 1
    50   28   29 1
    51   28   55 1
    52   28   56 1
    53   29   30 1
    54   29   57 1
    55   29   58 1
    56   30   31 1
    57   30   59 1
    58   30   60 1
    59   31   32 1
    60   31   61 1
    61   31   62 1
    62   32   63 1
    63   32   64 1
    64   33   38 1
    65   33   34 1
    66   34   35 1
    67   34   65 1
    68   34   66 1
    69   35   36 1
    70   35   67 1
    71   35   68 1
    72   36   37 1
    73   36   69 1
    74   36   70 1
    75   37   38 1
    76   37   71 1
    77   37   72 1
    78   38   73 1
    79   38   74 1
    80   39   75 1
@<TRIPOS>MOLECULE
ZINC39656034
   72    76     0     0     0
SMALL
USER_CHARGES

@<TRIPOS>ATOM
      1 C1          3.4959    0.2997   -1.4035 C.3       1 <0>        -0.1394
      2 C2          2.7084   -0.9821   -1.1249 C.3       1 <0>        -0.1204
      3 S1          2.6898   -1.3044    0.6601 S.3       1 <0>        -0.0205
      4 C3          1.7582   -2.7920    0.8150 C.ar      1 <0>         0.1665
      5 C4          1.5313   -3.3461    2.0875 C.ar      1 <0>        -0.1839
      6 C5          0.7882   -4.5278    2.1848 C.ar      1 <0>        -0.0264
      7 C6          0.3080   -5.1005    1.0202 C.ar      1 <0>        -0.1870
      8 C7          0.5725   -4.4962   -0.1960 C.ar      1 <0>         0.1505
      9 N1          1.2705   -3.3799   -0.2673 N.ar      1 <0>        -0.4926
     10 C8          2.0668   -2.6945    3.2963 C.2       1 <0>         0.5933
     11 O1          2.1138   -1.4811    3.3628 O.2       1 <0>        -0.4999
     12 N2          2.5042   -3.4434    4.3279 N.am      1 <0>        -0.6187
     13 C9          2.6250   -4.9190    4.3922 C.3       1 <0>         0.1060
     14 C10         3.9435   -5.1698    5.1577 C.3       1 <0>        -0.1139
     15 H1          4.7665   -5.3165    4.4582 H         1 <0>         0.1119
     16 C11         4.1656   -3.8929    5.9856 C.3       1 <0>        -0.0713
     17 C12         2.9794   -2.9766    5.6525 C.3       1 <0>         0.1094
     18 C13         5.4737   -3.2207    5.5796 C.3       1 <0>        -0.1347
     19 C14         5.7006   -1.9853    6.4555 C.3       1 <0>        -0.0113
     20 N3          5.7505   -2.3865    7.8667 N.4       1 <0>        -0.5044
     21 C15         4.4568   -2.9476    8.2741 C.3       1 <0>        -0.0079
     22 C16         4.1771   -4.2235    7.4749 C.3       1 <0>        -0.1462
     23 C17         3.8055   -6.3670    6.0624 C.2       1 <0>         0.5189
     24 O2          2.7278   -6.6394    6.5476 O.2       1 <0>        -0.5208
     25 N4          4.8795   -7.1352    6.3323 N.am      1 <0>        -0.7273
     26 C18         4.7453   -8.2991    7.2118 C.3       1 <0>         0.1209
     27 C19         6.1023   -8.9919    7.3516 C.3       1 <0>        -0.0483
     28 C20         5.9642  -10.1892    8.2563 C.2       1 <0>        -0.1826
     29 C21         5.5365  -11.5339    7.8628 C.ar      1 <0>        -0.0962
     30 C22         5.1513  -12.1145    6.6533 C.ar      1 <0>        -0.0772
     31 C23         4.7994  -13.4345    6.6160 C.ar      1 <0>        -0.1047
     32 C24         4.8215  -14.2029    7.7716 C.ar      1 <0>        -0.0942
     33 C25         5.1985  -13.6500    8.9761 C.ar      1 <0>        -0.1237
     34 C26         5.5611  -12.3087    9.0371 C.ar      1 <0>         0.0906
     35 N5          5.9744  -11.4838   10.0592 N.pl3     1 <0>        -0.5930
     36 C27         6.2153  -10.2272    9.5744 C.2       1 <0>         0.0644
     37 C28         4.3836  -14.0607    5.3099 C.3       1 <0>        -0.1132
     38 H2          4.5186    0.1831   -1.0447 H         1 <0>         0.0632
     39 H3          3.5071    0.4933   -2.4761 H         1 <0>         0.0790
     40 H4          3.0232    1.1358   -0.8883 H         1 <0>         0.0662
     41 H5          1.6858   -0.8655   -1.4837 H         1 <0>         0.0934
     42 H6          3.1812   -1.8183   -1.6402 H         1 <0>         0.0906
     43 H7          0.5945   -4.9820    3.1454 H         1 <0>         0.1444
     44 H8         -0.2687   -6.0127    1.0603 H         1 <0>         0.1484
     45 H9          0.1969   -4.9453   -1.1036 H         1 <0>         0.1688
     46 H10         1.7825   -5.3459    4.9364 H         1 <0>         0.1016
     47 H11         2.6825   -5.3396    3.3883 H         1 <0>         0.0941
     48 H12         3.3061   -1.9383    5.5952 H         1 <0>         0.0919
     49 H13         2.1936   -3.0885    6.3996 H         1 <0>         0.0859
     50 H14         6.2992   -3.9195    5.7151 H         1 <0>         0.0964
     51 H15         5.4189   -2.9199    4.5334 H         1 <0>         0.1193
     52 H16         6.6428   -1.5122    6.1790 H         1 <0>         0.1401
     53 H17         4.8830   -1.2799    6.3072 H         1 <0>         0.1349
     54 H18         6.4714   -3.0812    7.9922 H         1 <0>         0.4272
     55 H19         4.4822   -3.1838    9.3379 H         1 <0>         0.1389
     56 H20         3.6687   -2.2193    8.0828 H         1 <0>         0.1335
     57 H21         3.2080   -4.6295    7.7649 H         1 <0>         0.1271
     58 H22         4.9559   -4.9584    7.6784 H         1 <0>         0.0969
     59 H23         5.7414   -6.9173    5.9442 H         1 <0>         0.4004
     60 H24         4.4001   -7.9748    8.1935 H         1 <0>         0.0708
     61 H25         4.0239   -8.9958    6.7849 H         1 <0>         0.0750
     62 H26         6.4475   -9.3162    6.3698 H         1 <0>         0.0775
     63 H27         6.8237   -8.2952    7.7785 H         1 <0>         0.0725
     64 H28         5.1310  -11.5226    5.7502 H         1 <0>         0.1185
     65 H29         4.5400  -15.2446    7.7264 H         1 <0>         0.1280
     66 H30         5.2122  -14.2562    9.8699 H         1 <0>         0.1225
     67 H31         6.5546   -9.3892   10.1652 H         1 <0>         0.1672
     68 H32         6.0825  -11.7544   10.9845 H         1 <0>         0.4185
     69 H33         5.2607  -14.4669    4.8062 H         1 <0>         0.0696
     70 H34         3.6710  -14.8628    5.5021 H         1 <0>         0.0670
     71 H35         3.9182  -13.3053    4.6767 H         1 <0>         0.0641
     72 H36         5.9606   -1.5808    8.4367 H         1 <0>         0.4341
@<TRIPOS>BOND
     1    1    2 1
     2    1   38 1
     3    1   39 1
     4    1   40 1
     5    2    3 1
     6    2   41 1
     7    2   42 1
     8    3    4 1
     9    4    9 ar
    10    4    5 ar
    11    5    6 ar
    12    5   10 1
    13    6    7 ar
    14    6   43 1
    15    7    8 ar
    16    7   44 1
    17    8    9 ar
    18    8   45 1
    19   10   11 2
    20   10   12 am
    21   12   17 1
    22   12   13 1
    23   13   14 1
    24   13   46 1
    25   13   47 1
    26   14   15 1
    27   14   16 1
    28   14   23 1
    29   16   22 1
    30   16   17 1
    31   16   18 1
    32   17   48 1
    33   17   49 1
    34   18   19 1
    35   18   50 1
    36   18   51 1
    37   19   20 1
    38   19   52 1
    39   19   53 1
    40   20   21 1
    41   20   54 1
    42   20   72 1
    43   21   22 1
    44   21   55 1
    45   21   56 1
    46   22   57 1
    47   22   58 1
    48   23   24 2
    49   23   25 am
    50   25   26 1
    51   25   59 1
    52   26   27 1
    53   26   60 1
    54   26   61 1
    55   27   62 1
    56   27   63 1
    57   27   28 1
    58   28   29 1
    59   28   36 2
    60   29   30 ar
    61   29   34 ar
    62   30   31 ar
    63   30   64 1
    64   31   32 ar
    65   31   37 1
    66   32   33 ar
    67   32   65 1
    68   33   34 ar
    69   33   66 1
    70   34   35 1
    71   35   68 1
    72   35   36 1
    73   36   67 1
    74   37   69 1
    75   37   70 1
    76   37   71 1
@<TRIPOS>MOLECULE
ZINC28822582
   62    66     0     0     0
SMALL
USER_CHARGES

@<TRIPOS>ATOM
      1 C1          2.2347   -3.4409    1.8692 C.3       1 <0>         0.0746
      2 N1          1.1378   -2.8387    1.1072 N.pl3     1 <0>        -0.4493
      3 C2          0.8191   -3.1248   -0.1993 C.ar      1 <0>         0.1158
      4 C3          1.3647   -3.9877   -1.1459 C.ar      1 <0>        -0.1327
      5 C4          0.8140   -4.0581   -2.4057 C.ar      1 <0>        -0.0789
      6 C5         -0.2831   -3.2755   -2.7439 C.ar      1 <0>        -0.1438
      7 C6         -0.8353   -2.4225   -1.8333 C.ar      1 <0>        -0.0604
      8 C7         -0.2931   -2.3326   -0.5446 C.ar      1 <0>        -0.1209
      9 C8         -0.6252   -1.5664    0.5988 C.2       1 <0>        -0.1261
     10 C9          0.2500   -1.8944    1.5852 C.2       1 <0>         0.0039
     11 C10         0.2541   -1.3310    2.9432 C.2       1 <0>         0.5944
     12 O1          1.1398   -1.6284    3.7226 O.2       1 <0>        -0.5235
     13 N2         -0.7233   -0.4851    3.3248 N.am      1 <0>        -0.6487
     14 C11        -0.7067    0.0698    4.6103 C.ar      1 <0>         0.1465
     15 C12        -0.0403   -0.5828    5.6387 C.ar      1 <0>        -0.1018
     16 C13        -0.0214   -0.0388    6.9063 C.ar      1 <0>        -0.1197
     17 C14        -0.6727    1.1686    7.1574 C.ar      1 <0>        -0.0564
     18 C15        -1.3424    1.8253    6.1257 C.ar      1 <0>        -0.1648
     19 C16        -1.3544    1.2799    4.8548 C.ar      1 <0>         0.1093
     20 O2         -2.0023    1.9206    3.8455 O.3       1 <0>        -0.3122
     21 C17        -2.6441    3.1560    4.1679 C.3       1 <0>         0.0254
     22 C18        -0.6534    1.7527    8.5195 C.2       1 <0>        -0.0445
     23 C19        -1.8097    2.0184    9.1717 C.2       1 <0>        -0.1315
     24 S1         -1.2637    2.6920   10.7294 S.3       1 <0>         0.2069
     25 C20         0.4870    2.6032   10.4739 C.ar      1 <0>        -0.0560
     26 C21         0.6131    2.0462    9.1841 C.ar      1 <0>        -0.1377
     27 C22         1.9405    1.8575    8.7210 C.ar      1 <0>         0.4999
     28 N3          2.9695    2.1869    9.4737 N.ar      1 <0>        -0.4974
     29 C23         2.8448    2.7048   10.6859 C.ar      1 <0>         0.1238
     30 C24         1.6045    2.9354   11.2179 C.ar      1 <0>        -0.0569
     31 C25         1.4596    3.5245   12.5974 C.3       1 <0>        -0.0810
     32 C26         1.3014    2.3970   13.6194 C.3       1 <0>        -0.1212
     33 C27         1.1543    2.9951   15.0200 C.3       1 <0>         0.0739
     34 O3          1.0066    1.9420   15.9746 O.3       1 <0>        -0.5748
     35 N4          2.1573    1.3189    7.4601 N.pl3     1 <0>        -0.8254
     36 H1          1.8547   -4.2805    2.4512 H         1 <0>         0.0734
     37 H2          3.0037   -3.7936    1.1819 H         1 <0>         0.0839
     38 H3          2.6617   -2.6965    2.5413 H         1 <0>         0.0973
     39 H4          2.2177   -4.5998   -0.8928 H         1 <0>         0.1237
     40 H5          1.2392   -4.7279   -3.1385 H         1 <0>         0.1316
     41 H6         -0.7026   -3.3428   -3.7368 H         1 <0>         0.1286
     42 H7         -1.6882   -1.8184   -2.1052 H         1 <0>         0.1278
     43 H8         -1.4323   -0.8527    0.6748 H         1 <0>         0.1525
     44 H9         -1.4383   -0.2607    2.7089 H         1 <0>         0.4239
     45 H10         0.4640   -1.5183    5.4460 H         1 <0>         0.1702
     46 H11         0.4976   -0.5483    7.7046 H         1 <0>         0.1318
     47 H12        -1.8475    2.7605    6.3178 H         1 <0>         0.1426
     48 H13        -3.3972    2.9844    4.9370 H         1 <0>         0.0609
     49 H14        -1.9030    3.8651    4.5368 H         1 <0>         0.0586
     50 H15        -3.1217    3.5610    3.2757 H         1 <0>         0.1101
     51 H16        -2.8218    1.8605    8.8295 H         1 <0>         0.2125
     52 H17         3.7276    2.9546   11.2558 H         1 <0>         0.2129
     53 H18         2.3468    4.1106   12.8373 H         1 <0>         0.1015
     54 H19         0.5802    4.1679   12.6272 H         1 <0>         0.0953
     55 H20         0.4142    1.8110   13.3796 H         1 <0>         0.0755
     56 H21         2.1808    1.7537   13.5897 H         1 <0>         0.0782
     57 H22         2.0415    3.5811   15.2599 H         1 <0>         0.0513
     58 H23         0.2749    3.6385   15.0498 H         1 <0>         0.0505
     59 H24         0.9081    2.2486   16.8864 H         1 <0>         0.3895
     60 H25         1.5165    1.4758    6.7490 H         1 <0>         0.4393
     61 H26         2.9495    0.7856    7.2901 H         1 <0>         0.4230
     62 H27         3.8624    2.0429    9.1231 H         1 <0>         0.4445
@<TRIPOS>BOND
     1    1    2 1
     2    1   36 1
     3    1   37 1
     4    1   38 1
     5    2   10 1
     6    2    3 1
     7    3    8 ar
     8    3    4 ar
     9    4    5 ar
    10    4   39 1
    11    5    6 ar
    12    5   40 1
    13    6    7 ar
    14    6   41 1
    15    7    8 ar
    16    7   42 1
    17    8    9 1
    18    9   10 2
    19    9   43 1
    20   10   11 1
    21   11   12 2
    22   11   13 am
    23   13   14 1
    24   13   44 1
    25   14   19 ar
    26   14   15 ar
    27   15   16 ar
    28   15   45 1
    29   16   17 ar
    30   16   46 1
    31   17   18 ar
    32   17   22 1
    33   18   19 ar
    34   18   47 1
    35   19   20 1
    36   20   21 1
    37   21   48 1
    38   21   49 1
    39   21   50 1
    40   22   26 1
    41   22   23 2
    42   23   24 1
    43   23   51 1
    44   24   25 1
    45   25   30 ar
    46   25   26 ar
    47   26   27 ar
    48   27   28 ar
    49   27   35 1
    50   28   29 ar
    51   28   62 1
    52   29   30 ar
    53   29   52 1
    54   30   31 1
    55   31   32 1
    56   31   53 1
    57   31   54 1
    58   32   33 1
    59   32   55 1
    60   32   56 1
    61   33   34 1
    62   33   57 1
    63   33   58 1
    64   34   59 1
    65   35   60 1
    66   35   61 1
@<TRIPOS>MOLECULE
ZINC63794390
   50    53     0     0     0
SMALL
USER_CHARGES

@<TRIPOS>ATOM
      1 C1         -0.0163    1.3482    0.0095 C.ar      1 <0>        -0.1461
      2 C2          1.1658    2.1014    0.0022 C.ar      1 <0>         0.0568
      3 C3          2.3912    1.5352   -0.0125 C.ar      1 <0>        -0.2086
      4 C4          2.5288    0.1198   -0.0218 C.ar      1 <0>         0.3314
      5 N1          3.5868   -0.6543   -0.0369 N.pl3     1 <0>        -0.5795
      6 C5          3.1432   -2.0528   -0.0408 C.3       1 <0>         0.0533
      7 C6          1.6315   -2.0084   -0.0255 C.2       1 <0>         0.0693
      8 C7          1.2951   -0.6984   -0.0144 C.ar      1 <0>        -0.1534
      9 C8          0.0021   -0.0041    0.0020 C.ar      1 <0>        -0.0149
     10 C9          0.6905   -3.1856   -0.0239 C.3       1 <0>        -0.0291
     11 H1         -0.3390   -2.8277   -0.0118 H         1 <0>         0.1334
     12 C10         0.9474   -4.0421    1.2175 C.3       1 <0>         0.1300
     13 N2         -0.0445   -5.1184    1.2820 N.am      1 <0>        -0.7264
     14 C11        -0.0135   -6.0033    2.2980 C.2       1 <0>         0.5442
     15 O1          0.8355   -5.9087    3.1590 O.2       1 <0>        -0.5092
     16 C12        -1.0337   -7.1105    2.3643 C.3       1 <0>        -0.1643
     17 S1         -0.7292   -8.1260    3.8363 S.3       1 <0>         0.1203
     18 C13        -1.9868   -9.3584    3.7714 C.2       1 <0>         0.0526
     19 N3         -2.9127   -9.5096    2.8749 N.2       1 <0>        -0.2473
     20 N4         -3.8522  -10.5152    2.9209 N.pl3     1 <0>        -0.6071
     21 C14        -3.7396  -11.4315    4.0782 C.3       1 <0>         0.3339
     22 H2         -4.6286  -11.3870    4.7073 H         1 <0>         0.0974
     23 S2         -2.2785  -10.6942    4.9200 S.3       1 <0>        -0.1228
     24 N5         -3.4643  -12.8080    3.6455 N.3       1 <0>        -0.8398
     25 C15         0.9199   -4.0138   -1.2619 C.ar      1 <0>        -0.0970
     26 C16         2.1585   -4.5826   -1.4931 C.ar      1 <0>        -0.0967
     27 C17         2.3696   -5.3422   -2.6281 C.ar      1 <0>        -0.0931
     28 C18         1.3411   -5.5343   -3.5337 C.ar      1 <0>        -0.0114
     29 C19         0.1016   -4.9658   -3.3027 C.ar      1 <0>        -0.0902
     30 C20        -0.1106   -4.2094   -2.1638 C.ar      1 <0>        -0.0143
     31 Cl1        -1.6678   -3.5005   -1.8700 Cl        1 <0>        -0.0384
     32 Cl2         1.6066   -6.4880   -4.9597 Cl        1 <0>        -0.0304
     33 H3         -0.9665    1.8612    0.0259 H         1 <0>         0.1597
     34 H4          1.0933    3.1789    0.0083 H         1 <0>         0.1628
     35 H5          3.2717    2.1606   -0.0175 H         1 <0>         0.1628
     36 H6          3.4952   -2.5561   -0.9413 H         1 <0>         0.1748
     37 H7          3.5129   -2.5667    0.8465 H         1 <0>         0.1785
     38 H8         -0.9210   -0.5647    0.0081 H         1 <0>         0.1598
     39 H9          1.9473   -4.4724    1.1616 H         1 <0>         0.0865
     40 H10         0.8684   -3.4213    2.1100 H         1 <0>         0.0914
     41 H11        -0.7234   -5.1941    0.5934 H         1 <0>         0.4072
     42 H12        -2.0337   -6.6802    2.4203 H         1 <0>         0.1273
     43 H13        -0.9547   -7.7313    1.4719 H         1 <0>         0.1263
     44 H14        -4.5391  -10.6159    2.2434 H         1 <0>         0.4353
     45 H15        -3.3886  -13.4279    4.4380 H         1 <0>         0.3646
     46 H16        -4.1685  -13.1316    2.9993 H         1 <0>         0.3528
     47 H17         2.9616   -4.4330   -0.7866 H         1 <0>         0.1425
     48 H18         3.3377   -5.7858   -2.8085 H         1 <0>         0.1515
     49 H19        -0.7015   -5.1154   -4.0092 H         1 <0>         0.1558
     50 H20         4.5087   -0.3528   -0.0446 H         1 <0>         0.4578
@<TRIPOS>BOND
     1    1    9 ar
     2    1    2 ar
     3    1   33 1
     4    2    3 ar
     5    2   34 1
     6    3    4 ar
     7    3   35 1
     8    4    8 ar
     9    4    5 2
    10    5    6 1
    11    5   50 1
    12    6    7 1
    13    6   36 1
    14    6   37 1
    15    7    8 2
    16    7   10 1
    17    8    9 ar
    18    9   38 1
    19   10   11 1
    20   10   12 1
    21   10   25 1
    22   12   13 1
    23   12   39 1
    24   12   40 1
    25   13   14 am
    26   13   41 1
    27   14   15 2
    28   14   16 1
    29   16   17 1
    30   16   42 1
    31   16   43 1
    32   17   18 1
    33   18   23 1
    34   18   19 2
    35   19   20 1
    36   20   21 1
    37   20   44 1
    38   21   22 1
    39   21   23 1
    40   21   24 1
    41   24   45 1
    42   24   46 1
    43   25   30 ar
    44   25   26 ar
    45   26   27 ar
    46   26   47 1
    47   27   28 ar
    48   27   48 1
    49   28   29 ar
    50   28   32 1
    51   29   30 ar
    52   29   49 1
    53   30   31 1
@<TRIPOS>MOLECULE
ZINC09862463
   61    64     0     0     0
SMALL
USER_CHARGES
6-[[5-(1-dimethylaminoethyl)-4-(4-fluorophenyl)-1,2,4-triazol-3-yl]sulfanylmethyl]-N'-(o-tolyl)-1,3,5-triazine-2,4-diamine
@<TRIPOS>ATOM
      1 C1         -0.9875    1.9346   -0.9892 C.3       1 <0>        -0.1182
      2 C2          0.1364    1.2764   -0.2310 C.ar      1 <0>        -0.1095
      3 C3          1.3134    1.9632   -0.0053 C.ar      1 <0>        -0.0994
      4 C4          2.3473    1.3579    0.6848 C.ar      1 <0>        -0.1271
      5 C5          2.2066    0.0638    1.1521 C.ar      1 <0>        -0.1061
      6 C6          1.0326   -0.6283    0.9299 C.ar      1 <0>        -0.1124
      7 C7         -0.0080   -0.0232    0.2365 C.ar      1 <0>         0.1499
      8 N1         -1.1984   -0.7212    0.0101 N.pl3     1 <0>        -0.6164
      9 C8         -1.1813   -2.0979   -0.1017 C.ar      1 <0>         0.6325
     10 N2         -2.3249   -2.7738   -0.1889 N.ar      1 <0>        -0.6175
     11 C9         -2.3093   -4.0902   -0.3014 C.ar      1 <0>         0.4354
     12 N3         -1.1597   -4.7421   -0.3170 N.ar      1 <0>        -0.6195
     13 C10        -0.0124   -4.0738   -0.2248 C.ar      1 <0>         0.6336
     14 N4         -0.0238   -2.7496   -0.1170 N.ar      1 <0>        -0.6287
     15 N5          1.1874   -4.7554   -0.2416 N.pl3     1 <0>        -0.7975
     16 C11        -3.6061   -4.8508   -0.4066 C.3       1 <0>        -0.0466
     17 S1         -4.1813   -5.2947    1.2512 S.3       1 <0>         0.0855
     18 C12        -5.6672   -6.1482    0.8411 C.2       1 <0>         0.1931
     19 N6         -6.1420   -6.3542   -0.3656 N.2       1 <0>        -0.2704
     20 N7         -7.2442   -7.0113   -0.2960 N.2       1 <0>        -0.2480
     21 C13        -7.5387   -7.2633    0.9482 C.2       1 <0>         0.1197
     22 N8         -6.5418   -6.7269    1.7192 N.pl3     1 <0>        -0.3962
     23 C14        -6.4404   -6.7614    3.1183 C.ar      1 <0>         0.0632
     24 C15        -6.2757   -7.9740    3.7734 C.ar      1 <0>        -0.0766
     25 C16        -6.1698   -8.0055    5.1501 C.ar      1 <0>        -0.1373
     26 C17        -6.2403   -6.8294    5.8778 C.ar      1 <0>         0.1379
     27 C18        -6.4104   -5.6193    5.2264 C.ar      1 <0>        -0.1319
     28 C19        -6.5104   -5.5835    3.8493 C.ar      1 <0>        -0.0598
     29 F1         -6.1427   -6.8626    7.2249 F         1 <0>        -0.1187
     30 C20        -8.7487   -8.0110    1.4460 C.3       1 <0>         0.1356
     31 H1         -8.5968   -8.2960    2.4870 H         1 <0>         0.1510
     32 C21        -9.9830   -7.1134    1.3378 C.3       1 <0>        -0.1795
     33 C22        -7.7445  -10.0601    0.6365 C.3       1 <0>        -0.0456
     34 C23       -10.1215   -9.9734    1.0895 C.3       1 <0>        -0.0464
     35 H2         -1.6429    2.4534   -0.2895 H         1 <0>         0.0732
     36 H3         -0.5757    2.6506   -1.7004 H         1 <0>         0.0749
     37 H4         -1.5570    1.1758   -1.5259 H         1 <0>         0.0619
     38 H5          1.4263    2.9740   -0.3686 H         1 <0>         0.1284
     39 H6          3.2667    1.8970    0.8596 H         1 <0>         0.1254
     40 H7          3.0160   -0.4060    1.6912 H         1 <0>         0.1255
     41 H8          0.9234   -1.6388    1.2951 H         1 <0>         0.1378
     42 H9         -2.0361   -0.2386   -0.0684 H         1 <0>         0.4279
     43 H10         2.0232   -4.2676   -0.1746 H         1 <0>         0.4218
     44 H11         1.1950   -5.7221   -0.3203 H         1 <0>         0.4215
     45 H12        -4.3543   -4.2273   -0.8960 H         1 <0>         0.1342
     46 H13        -3.4493   -5.7571   -0.9916 H         1 <0>         0.1340
     47 H14        -6.2258   -8.8919    3.2065 H         1 <0>         0.1383
     48 H15        -6.0368   -8.9483    5.6598 H         1 <0>         0.1562
     49 H16        -6.4652   -4.7031    5.7955 H         1 <0>         0.1582
     50 H17        -6.6434   -4.6396    3.3416 H         1 <0>         0.1485
     51 H18       -10.1349   -6.8284    0.2967 H         1 <0>         0.0945
     52 H19       -10.8582   -7.6542    1.6978 H         1 <0>         0.0987
     53 H20        -9.8353   -6.2181    1.9417 H         1 <0>         0.1066
     54 H21        -7.5161  -10.3618    1.6587 H         1 <0>         0.1214
     55 H22        -7.9192  -10.9464    0.0265 H         1 <0>         0.1326
     56 H23        -6.9053   -9.4973    0.2277 H         1 <0>         0.1163
     57 H24       -11.0103   -9.3475    1.0100 H         1 <0>         0.1279
     58 H25       -10.2458  -10.8615    0.4699 H         1 <0>         0.1312
     59 H26        -9.9791  -10.2720    2.1281 H         1 <0>         0.1258
     60 N9         -8.9527   -9.2092    0.6050 N.4       1 <0>        -0.3920
     61 H27        -9.1262   -8.9121   -0.3624 H         1 <0>         0.4411
@<TRIPOS>BOND
     1    1    2 1
     2    1   35 1
     3    1   36 1
     4    1   37 1
     5    2    7 ar
     6    2    3 ar
     7    3    4 ar
     8    3   38 1
     9    4    5 ar
    10    4   39 1
    11    5    6 ar
    12    5   40 1
    13    6    7 ar
    14    6   41 1
    15    7    8 1
    16    8    9 1
    17    8   42 1
    18    9   14 ar
    19    9   10 ar
    20   10   11 ar
    21   11   12 ar
    22   11   16 1
    23   12   13 ar
    24   13   14 ar
    25   13   15 1
    26   15   43 1
    27   15   44 1
    28   16   17 1
    29   16   45 1
    30   16   46 1
    31   17   18 1
    32   18   22 1
    33   18   19 2
    34   19   20 1
    35   20   21 2
    36   21   22 1
    37   21   30 1
    38   22   23 1
    39   23   28 ar
    40   23   24 ar
    41   24   25 ar
    42   24   47 1
    43   25   26 ar
    44   25   48 1
    45   26   27 ar
    46   26   29 1
    47   27   28 ar
    48   27   49 1
    49   28   50 1
    50   30   31 1
    51   30   32 1
    52   30   60 1
    53   32   51 1
    54   32   52 1
    55   32   53 1
    56   33   54 1
    57   33   55 1
    58   33   56 1
    59   33   60 1
    60   34   57 1
    61   34   58 1
    62   34   59 1
    63   34   60 1
    64   60   61 1
@<TRIPOS>MOLECULE
ZINC28822262
   62    67     0     0     0
SMALL
USER_CHARGES

@<TRIPOS>ATOM
      1 C1         -0.0084    1.3245   -0.0321 C.ar      1 <0>        -0.1110
      2 C2          1.1706    2.0370   -0.0346 C.ar      1 <0>        -0.0859
      3 C3          2.3918    1.3642   -0.0451 C.ar      1 <0>        -0.0158
      4 C4          2.4199   -0.0298   -0.0529 C.ar      1 <0>        -0.0877
      5 C5          1.2412   -0.7426   -0.0508 C.ar      1 <0>        -0.1100
      6 C6          0.0196   -0.0698   -0.0399 C.ar      1 <0>        -0.0353
      7 C7         -1.2494   -0.8370   -0.0366 C.ar      1 <0>        -0.0560
      8 C8         -2.4714   -0.1658   -0.0315 C.ar      1 <0>        -0.0924
      9 C9         -3.6497   -0.8820   -0.0284 C.ar      1 <0>        -0.1426
     10 C10        -3.6201   -2.2701   -0.0304 C.ar      1 <0>         0.1070
     11 C11        -2.4048   -2.9414   -0.0351 C.ar      1 <0>        -0.1425
     12 C12        -1.2230   -2.2309   -0.0444 C.ar      1 <0>        -0.0921
     13 O1         -4.7829   -2.9730   -0.0274 O.3       1 <0>        -0.4996
     14 C13         3.6615    2.1318   -0.0483 C.2       1 <0>         0.1443
     15 C14         4.8537    1.7542    0.5909 C.2       1 <0>        -0.2242
     16 C15         5.7849    2.7190    0.3525 C.2       1 <0>         0.1067
     17 N1          5.1886    3.6780   -0.4182 N.pl3     1 <0>        -0.4568
     18 H1          5.6086    4.4888   -0.7457 H         1 <0>         0.4407
     19 N2          3.8669    3.2821   -0.6559 N.2       1 <0>        -0.2599
     20 C16         7.0626    2.3645    1.0086 C.ar      1 <0>        -0.0549
     21 C17         8.2931    3.0268    1.0531 C.ar      1 <0>        -0.0728
     22 C18         9.3477    2.4750    1.7464 C.ar      1 <0>        -0.1435
     23 C19         9.1942    1.2600    2.4043 C.ar      1 <0>         0.1602
     24 C20         7.9721    0.5977    2.3634 C.ar      1 <0>        -0.1010
     25 C21         6.9168    1.1458    1.6714 C.ar      1 <0>        -0.0499
     26 C22         5.4976    0.6865    1.4418 C.3       1 <0>        -0.0082
     27 N3         10.2680    0.7041    3.1063 N.am      1 <0>        -0.6743
     28 C23        10.0457    0.0162    4.2438 C.2       1 <0>         0.5120
     29 O2          8.9098   -0.1925    4.6141 O.2       1 <0>        -0.4978
     30 C24        11.2086   -0.4936    5.0555 C.3       1 <0>         0.0420
     31 N4         10.7057   -1.2049    6.2383 N.3       1 <0>        -0.6683
     32 C25        11.8139   -1.7172    7.0553 C.3       1 <0>         0.0985
     33 C26        11.2603   -2.4391    8.2567 C.ar      1 <0>        -0.0431
     34 C27        11.0089   -1.7601    9.4391 C.ar      1 <0>        -0.1673
     35 C28        10.5012   -2.4555   10.5202 C.ar      1 <0>         0.0994
     36 N5         10.2569   -3.7486   10.4360 N.ar      1 <0>        -0.4838
     37 C29        10.4838   -4.4265    9.3279 C.ar      1 <0>         0.0985
     38 C30        10.9850   -3.7970    8.2042 C.ar      1 <0>        -0.1489
     39 H2         -0.9542    1.8456   -0.0195 H         1 <0>         0.1297
     40 H3          1.1490    3.1168   -0.0289 H         1 <0>         0.1295
     41 H4          3.3660   -0.5507   -0.0610 H         1 <0>         0.1296
     42 H5          1.2630   -1.8223   -0.0572 H         1 <0>         0.1309
     43 H6         -2.4951    0.9140   -0.0296 H         1 <0>         0.1313
     44 H7         -4.5967   -0.3627   -0.0241 H         1 <0>         0.1315
     45 H8         -2.3850   -4.0212   -0.0359 H         1 <0>         0.1316
     46 H9         -0.2780   -2.7536   -0.0533 H         1 <0>         0.1318
     47 H10        -5.1225   -3.1753   -0.9099 H         1 <0>         0.3921
     48 H11         8.4169    3.9709    0.5434 H         1 <0>         0.1279
     49 H12        10.2975    2.9880    1.7788 H         1 <0>         0.1328
     50 H13         7.8517   -0.3465    2.8738 H         1 <0>         0.1479
     51 H14         4.9732    0.5965    2.3931 H         1 <0>         0.1027
     52 H15         5.4911   -0.2683    0.9161 H         1 <0>         0.1004
     53 H16        11.1730    0.8134    2.7746 H         1 <0>         0.4138
     54 H17        11.8048   -1.1747    4.4482 H         1 <0>         0.1099
     55 H18        11.8267    0.3465    5.3723 H         1 <0>         0.0677
     56 H19        10.0972   -0.6136    6.7843 H         1 <0>         0.3555
     57 H20        12.4143   -2.4067    6.4618 H         1 <0>         0.0897
     58 H21        12.4361   -0.8856    7.3859 H         1 <0>         0.0481
     59 H22        11.2076   -0.7012    9.5145 H         1 <0>         0.1321
     60 H23        10.3026   -1.9339   11.4448 H         1 <0>         0.1562
     61 H24        10.2715   -5.4849    9.2967 H         1 <0>         0.1572
     62 H25        11.1641   -4.3566    7.2980 H         1 <0>         0.1368
@<TRIPOS>BOND
     1    1    6 ar
     2    1    2 ar
     3    1   39 1
     4    2    3 ar
     5    2   40 1
     6    3    4 ar
     7    3   14 1
     8    4    5 ar
     9    4   41 1
    10    5    6 ar
    11    5   42 1
    12    6    7 1
    13    7   12 ar
    14    7    8 ar
    15    8    9 ar
    16    8   43 1
    17    9   10 ar
    18    9   44 1
    19   10   11 ar
    20   10   13 1
    21   11   12 ar
    22   11   45 1
    23   12   46 1
    24   13   47 1
    25   14   19 2
    26   14   15 1
    27   15   26 1
    28   15   16 2
    29   16   17 1
    30   16   20 1
    31   17   18 1
    32   17   19 1
    33   20   25 ar
    34   20   21 ar
    35   21   22 ar
    36   21   48 1
    37   22   23 ar
    38   22   49 1
    39   23   24 ar
    40   23   27 1
    41   24   25 ar
    42   24   50 1
    43   25   26 1
    44   26   51 1
    45   26   52 1
    46   27   28 am
    47   27   53 1
    48   28   29 2
    49   28   30 1
    50   30   31 1
    51   30   54 1
    52   30   55 1
    53   31   32 1
    54   31   56 1
    55   32   33 1
    56   32   57 1
    57   32   58 1
    58   33   38 ar
    59   33   34 ar
    60   34   35 ar
    61   34   59 1
    62   35   36 ar
    63   35   60 1
    64   36   37 ar
    65   37   38 ar
    66   37   61 1
    67   38   62 1
@<TRIPOS>MOLECULE
ZINC39024505
   68    73     0     0     0
SMALL
USER_CHARGES

@<TRIPOS>ATOM
      1 C1         -0.0173    1.4248    0.0099 C.3       1 <0>         0.0130
      2 O1          0.0021   -0.0041    0.0020 O.3       1 <0>        -0.3113
      3 C2         -1.2003   -0.6375    0.0101 C.ar      1 <0>         0.1537
      4 C3         -2.3748    0.1012    0.0195 C.ar      1 <0>        -0.1872
      5 C4         -3.5956   -0.5449    0.0272 C.ar      1 <0>        -0.0646
      6 C5         -3.6478   -1.9268    0.0256 C.ar      1 <0>        -0.1859
      7 C6         -2.4790   -2.6650    0.0167 C.ar      1 <0>        -0.0324
      8 C7         -1.2554   -2.0235    0.0032 C.ar      1 <0>        -0.0993
      9 C8          0.0182   -2.8288   -0.0128 C.3       1 <0>         0.0489
     10 N1          0.6114   -2.7803   -1.3559 N.3       1 <0>        -0.2665
     11 C9          1.8299   -3.6114   -1.4265 C.3       1 <0>         0.0965
     12 C10         2.9215   -2.6396   -1.8202 C.2       1 <0>        -0.2586
     13 C11         2.3535   -1.4569   -1.9404 C.2       1 <0>         0.2378
     14 N2          0.9996   -1.5103   -1.6739 N.pl3     1 <0>        -0.5415
     15 N3          4.3523   -2.9568   -2.0292 N.pl3     1 <0>         0.0833
     16 O2          5.1256   -2.0824   -2.3440 O.2       1 <0>        -0.1869
     17 O3          4.7475   -4.0903   -1.8850 O.3       1 <0>        -0.1712
     18 C12        -4.9811   -2.6292    0.0340 C.3       1 <0>         0.1687
     19 H1         -4.8576   -3.6528   -0.3195 H         1 <0>         0.1593
     20 C13        -5.5387   -2.6414    1.4374 C.2       1 <0>         0.0329
     21 H2         -3.9155   -3.1050    2.6576 H         1 <0>         0.4214
     22 C14        -6.8389   -2.3888    1.7139 C.2       1 <0>        -0.1638
     23 C15        -6.9994   -2.4864    3.1468 C.ar      1 <0>        -0.0580
     24 C16        -8.1018   -2.3272    3.9925 C.ar      1 <0>        -0.1087
     25 C17        -7.8781   -2.5004    5.3506 C.ar      1 <0>         0.1201
     26 C18        -6.6214   -2.8164    5.8514 C.ar      1 <0>        -0.1671
     27 C19        -5.5196   -2.9777    5.0299 C.ar      1 <0>        -0.0835
     28 C20        -5.7168   -2.8098    3.6617 C.ar      1 <0>         0.0781
     29 N4         -4.8607   -2.8956    2.5978 N.pl3     1 <0>        -0.5566
     30 O4         -8.9176   -2.3564    6.2156 O.3       1 <0>        -0.3072
     31 C21        -8.6370   -2.5447    7.6041 C.3       1 <0>         0.1025
     32 C22        -9.8994   -2.3467    8.4030 C.ar      1 <0>        -0.1041
     33 C23       -10.2305   -1.0892    8.8720 C.ar      1 <0>        -0.0953
     34 C24       -11.3885   -0.9076    9.6048 C.ar      1 <0>        -0.1220
     35 C25       -12.2155   -1.9835    9.8683 C.ar      1 <0>        -0.1049
     36 C26       -11.8849   -3.2408    9.3985 C.ar      1 <0>        -0.1217
     37 C27       -10.7291   -3.4216    8.6621 C.ar      1 <0>        -0.0949
     38 C28        -7.8637   -2.0760    0.6525 C.3       1 <0>        -0.0701
     39 C29        -7.2709   -2.4781   -0.7054 C.3       1 <0>        -0.0064
     40 N5         -5.9214   -1.9141   -0.8427 N.4       1 <0>        -0.5004
     41 H3          1.0053    1.8021    0.0021 H         1 <0>         0.1154
     42 H4         -0.5445    1.7859   -0.8732 H         1 <0>         0.0672
     43 H5         -0.5275    1.7763    0.9067 H         1 <0>         0.0682
     44 H6         -2.3345    1.1804    0.0211 H         1 <0>         0.1464
     45 H7         -4.5101    0.0296    0.0349 H         1 <0>         0.1276
     46 H8         -2.5225   -3.7442    0.0158 H         1 <0>         0.1464
     47 H9          0.7203   -2.4127    0.7097 H         1 <0>         0.0728
     48 H10        -0.2027   -3.8634    0.2497 H         1 <0>         0.1120
     49 H11         2.0462   -4.0543   -0.4543 H         1 <0>         0.0845
     50 H12         1.7188   -4.3873   -2.1839 H         1 <0>         0.1179
     51 H13         2.8823   -0.5556   -2.2134 H         1 <0>         0.1889
     52 H14         0.4028   -0.7463   -1.7083 H         1 <0>         0.4398
     53 H15        -9.0800   -2.0809    3.6069 H         1 <0>         0.1430
     54 H16        -6.5002   -2.9399    6.9175 H         1 <0>         0.1375
     55 H17        -4.5482   -3.2234    5.4328 H         1 <0>         0.1387
     56 H18        -8.2599   -3.5546    7.7649 H         1 <0>         0.0733
     57 H19        -7.8871   -1.8215    7.9245 H         1 <0>         0.0728
     58 H20        -9.5843   -0.2487    8.6661 H         1 <0>         0.1234
     59 H21       -11.6468    0.0747    9.9718 H         1 <0>         0.1274
     60 H22       -13.1199   -1.8417   10.4414 H         1 <0>         0.1272
     61 H23       -12.5309   -4.0814    9.6047 H         1 <0>         0.1277
     62 H24       -10.4727   -4.4032    8.2919 H         1 <0>         0.1240
     63 H25        -8.7748   -2.6440    0.8403 H         1 <0>         0.1235
     64 H26        -8.0856   -1.0088    0.6569 H         1 <0>         0.1006
     65 H27        -7.2160   -3.5648   -0.7703 H         1 <0>         0.1367
     66 H28        -7.9058   -2.0981   -1.5057 H         1 <0>         0.1452
     67 H29        -5.9418   -0.9385   -0.5861 H         1 <0>         0.4266
     68 H30        -5.6163   -1.9995   -1.8006 H         1 <0>         0.4389
@<TRIPOS>BOND
     1    1    2 1
     2    1   41 1
     3    1   42 1
     4    1   43 1
     5    2    3 1
     6    3    8 ar
     7    3    4 ar
     8    4    5 ar
     9    4   44 1
    10    5    6 ar
    11    5   45 1
    12    6    7 ar
    13    6   18 1
    14    7    8 ar
    15    7   46 1
    16    8    9 1
    17    9   10 1
    18    9   47 1
    19    9   48 1
    20   10   14 1
    21   10   11 1
    22   11   12 1
    23   11   49 1
    24   11   50 1
    25   12   13 2
    26   12   15 1
    27   13   14 1
    28   13   51 1
    29   14   52 1
    30   15   16 2
    31   15   17 1
    32   18   19 1
    33   18   40 1
    34   18   20 1
    35   20   22 2
    36   20   29 1
    37   21   29 1
    38   22   23 1
    39   22   38 1
    40   23   24 ar
    41   23   28 ar
    42   24   25 ar
    43   24   53 1
    44   25   26 ar
    45   25   30 1
    46   26   27 ar
    47   26   54 1
    48   27   28 ar
    49   27   55 1
    50   28   29 1
    51   30   31 1
    52   31   32 1
    53   31   56 1
    54   31   57 1
    55   32   37 ar
    56   32   33 ar
    57   33   34 ar
    58   33   58 1
    59   34   35 ar
    60   34   59 1
    61   35   36 ar
    62   35   60 1
    63   36   37 ar
    64   36   61 1
    65   37   62 1
    66   38   39 1
    67   38   63 1
    68   38   64 1
    69   39   40 1
    70   39   65 1
    71   39   66 1
    72   40   67 1
    73   40   68 1
@<TRIPOS>MOLECULE
ZINC40799439
   66    71     0     0     0
SMALL
USER_CHARGES

@<TRIPOS>ATOM
      1 C1          2.1983    0.8282   -4.4470 C.ar      1 <0>        -0.1516
      2 C2          2.7871    1.6677   -3.5194 C.ar      1 <0>        -0.0809
      3 C3          3.2788    1.1539   -2.3351 C.ar      1 <0>        -0.1453
      4 C4          3.1809   -0.2060   -2.0766 C.ar      1 <0>         0.1201
      5 C5          2.5891   -1.0461   -3.0090 C.ar      1 <0>        -0.1958
      6 C6          2.0995   -0.5272   -4.1919 C.ar      1 <0>        -0.0831
      7 O1          3.6641   -0.7140   -0.9127 O.3       1 <0>        -0.2582
      8 C7          3.5160   -2.0467   -0.6877 C.ar      1 <0>         0.0717
      9 C8          4.4408   -2.9437   -1.2026 C.ar      1 <0>        -0.1054
     10 C9          4.2909   -4.2974   -0.9749 C.ar      1 <0>        -0.0994
     11 C10         3.2142   -4.7609   -0.2300 C.ar      1 <0>         0.1586
     12 C11         2.2891   -3.8623    0.2854 C.ar      1 <0>        -0.1339
     13 C12         2.4433   -2.5085    0.0613 C.ar      1 <0>        -0.0994
     14 N1          3.0613   -6.1329    0.0008 N.pl3     1 <0>        -0.6524
     15 C13         4.1816   -6.9379    0.1731 C.ar      1 <0>         0.3841
     16 C14         4.0491   -8.3237    0.2797 C.ar      1 <0>         0.0813
     17 C15         5.2064   -9.0850    0.4517 C.ar      1 <0>         0.3437
     18 N2          6.3833   -8.4657    0.5071 N.ar      1 <0>        -0.5252
     19 C16         6.4643   -7.1548    0.4021 C.ar      1 <0>         0.3005
     20 N3          5.3976   -6.3999    0.2334 N.ar      1 <0>        -0.5221
     21 N4          5.1310  -10.4682    0.5639 N.pl3     1 <0>        -0.6539
     22 C17         4.8801  -11.1091    1.8641 C.3       1 <0>         0.1224
     23 C18         5.9357  -12.1986    2.0802 C.3       1 <0>        -0.0224
     24 N5          5.9265  -13.1212    0.9380 N.4       1 <0>        -0.3791
     25 C19         6.3349  -12.4118   -0.2811 C.3       1 <0>        -0.0291
     26 C20         5.2935  -11.3327   -0.6152 C.3       1 <0>         0.1270
     27 C21         6.8600  -14.2258    1.1955 C.3       1 <0>         0.0505
     28 C22         6.7619  -15.2364    0.0819 C.ar      1 <0>        -0.1563
     29 C23         5.8574  -16.2780    0.1734 C.ar      1 <0>        -0.0771
     30 C24         5.7634  -17.2072   -0.8457 C.ar      1 <0>        -0.1003
     31 C25         6.5766  -17.0968   -1.9619 C.ar      1 <0>         0.0725
     32 C26         7.4878  -16.0476   -2.0541 C.ar      1 <0>         0.0403
     33 C27         7.5725  -15.1167   -1.0314 C.ar      1 <0>        -0.0836
     34 O2          8.1632  -16.1588   -3.2350 O.3       1 <0>        -0.3009
     35 C28         7.9455  -17.5120   -3.6764 C.3       1 <0>         0.2112
     36 O3          6.6811  -17.8653   -3.0852 O.3       1 <0>        -0.2984
     37 N6          2.7864   -8.9347    0.2162 N.pl3     1 <0>        -0.8617
     38 H1          1.8109    1.2325   -5.3705 H         1 <0>         0.1262
     39 H2          2.8631    2.7259   -3.7211 H         1 <0>         0.1328
     40 H3          3.7392    1.8099   -1.6112 H         1 <0>         0.1333
     41 H4          2.5120   -2.1049   -2.8104 H         1 <0>         0.1257
     42 H5          1.6388   -1.1806   -4.9179 H         1 <0>         0.1251
     43 H6          5.2780   -2.5832   -1.7818 H         1 <0>         0.1354
     44 H7          5.0105   -4.9956   -1.3764 H         1 <0>         0.1387
     45 H8          1.4516   -4.2219    0.8647 H         1 <0>         0.1323
     46 H9          1.7263   -1.8093    0.4654 H         1 <0>         0.1372
     47 H10         2.1737   -6.5220    0.0405 H         1 <0>         0.4159
     48 H11         7.4355   -6.6848    0.4517 H         1 <0>         0.2010
     49 H12         4.9523  -10.3664    2.6585 H         1 <0>         0.1156
     50 H13         3.8862  -11.5566    1.8662 H         1 <0>         0.0823
     51 H14         6.9200  -11.7386    2.1681 H         1 <0>         0.1361
     52 H15         5.7086  -12.7486    2.9935 H         1 <0>         0.1391
     53 H16         7.3071  -11.9454   -0.1219 H         1 <0>         0.1362
     54 H17         6.4019  -13.1190   -1.1079 H         1 <0>         0.1362
     55 H18         4.3406  -11.8024   -0.8592 H         1 <0>         0.0821
     56 H19         5.6391  -10.7379   -1.4607 H         1 <0>         0.1145
     57 H20         7.8774  -13.8377    1.2454 H         1 <0>         0.1382
     58 H21         6.6063  -14.7026    2.1423 H         1 <0>         0.1423
     59 H22         5.2232  -16.3660    1.0431 H         1 <0>         0.1475
     60 H23         5.0559  -18.0198   -0.7716 H         1 <0>         0.1498
     61 H24         8.2751  -14.2995   -1.1022 H         1 <0>         0.1444
     62 H25         7.8852  -17.5551   -4.7639 H         1 <0>         0.1446
     63 H26         8.7362  -18.1665   -3.3094 H         1 <0>         0.0977
     64 H27         1.9996   -8.4028    0.0189 H         1 <0>         0.3988
     65 H28         2.7010   -9.8887    0.3695 H         1 <0>         0.4024
     66 H29         4.9964  -13.4921    0.8142 H         1 <0>         0.4205
@<TRIPOS>BOND
     1    1    6 ar
     2    1    2 ar
     3    1   38 1
     4    2    3 ar
     5    2   39 1
     6    3    4 ar
     7    3   40 1
     8    4    5 ar
     9    4    7 1
    10    5    6 ar
    11    5   41 1
    12    6   42 1
    13    7    8 1
    14    8   13 ar
    15    8    9 ar
    16    9   10 ar
    17    9   43 1
    18   10   11 ar
    19   10   44 1
    20   11   12 ar
    21   11   14 1
    22   12   13 ar
    23   12   45 1
    24   13   46 1
    25   14   15 1
    26   14   47 1
    27   15   20 ar
    28   15   16 ar
    29   16   17 ar
    30   16   37 1
    31   17   18 ar
    32   17   21 1
    33   18   19 ar
    34   19   20 ar
    35   19   48 1
    36   21   26 1
    37   21   22 1
    38   22   23 1
    39   22   49 1
    40   22   50 1
    41   23   24 1
    42   23   51 1
    43   23   52 1
    44   24   25 1
    45   24   27 1
    46   24   66 1
    47   25   26 1
    48   25   53 1
    49   25   54 1
    50   26   55 1
    51   26   56 1
    52   27   28 1
    53   27   57 1
    54   27   58 1
    55   28   33 ar
    56   28   29 ar
    57   29   30 ar
    58   29   59 1
    59   30   31 ar
    60   30   60 1
    61   31   36 1
    62   31   32 ar
    63   32   33 ar
    64   32   34 1
    65   33   61 1
    66   34   35 1
    67   35   36 1
    68   35   62 1
    69   35   63 1
    70   37   64 1
    71   37   65 1
@<TRIPOS>MOLECULE
ZINC13477563
   55    58     0     0     0
SMALL
USER_CHARGES

@<TRIPOS>ATOM
      1 C1          5.7806   -0.9040    1.6121 C.3       1 <0>        -0.1563
      2 C2          4.9414   -2.1603    1.3704 C.3       1 <0>         0.0491
      3 O1          5.2982   -2.7366    0.1123 O.3       1 <0>        -0.2908
      4 C3          4.6405   -3.8682   -0.2571 C.ar      1 <0>         0.1232
      5 C4          3.6724   -4.4051    0.5695 C.ar      1 <0>        -0.1354
      6 C5          2.9975   -5.5697    0.1864 C.ar      1 <0>        -0.0685
      7 C6          3.3070   -6.1840   -1.0324 C.ar      1 <0>        -0.0533
      8 C7          4.2745   -5.6411   -1.8510 C.ar      1 <0>        -0.0949
      9 C8          4.9394   -4.4822   -1.4718 C.ar      1 <0>         0.1461
     10 O2          5.8883   -3.9485   -2.2854 O.3       1 <0>        -0.3086
     11 C9          7.2314   -4.3990   -2.0982 C.3       1 <0>         0.1159
     12 C10         8.1364   -3.7029   -3.0818 C.ar      1 <0>        -0.0874
     13 C11         7.6249   -2.7970   -3.9597 C.ar      1 <0>        -0.0843
     14 C12         8.4460   -2.1436   -4.8763 C.ar      1 <0>        -0.1175
     15 C13         9.7835   -2.3924   -4.9208 C.ar      1 <0>        -0.0981
     16 C14        10.3479   -3.3211   -4.0303 C.ar      1 <0>        -0.0516
     17 C15         9.5135   -3.9813   -3.0937 C.ar      1 <0>        -0.0387
     18 C16        10.0792   -4.9060   -2.1990 C.ar      1 <0>        -0.1196
     19 C17        11.4173   -5.1502   -2.2396 C.ar      1 <0>        -0.1060
     20 C18        12.2388   -4.4962   -3.1563 C.ar      1 <0>        -0.1184
     21 C19        11.7244   -3.6046   -4.0467 C.ar      1 <0>        -0.0986
     22 Br1         4.6922   -6.4726   -3.4972 Br        1 <0>         0.0020
     23 C20         1.9669   -6.1461    1.0616 C.2       1 <0>         0.2433
     24 N1          1.3375   -7.2342    0.7018 N.2       1 <0>        -0.3515
     25 N2          0.4331   -7.7401    1.4700 N.pl3     1 <0>        -0.3987
     26 C21        -0.2000   -8.8344    1.1081 C.cat     1 <0>         0.6204
     27 C22        -1.2352   -9.4135    1.9873 C.2       1 <0>         0.0167
     28 C23        -2.2984  -10.3383    1.5728 C.2       1 <0>         0.3570
     29 N3         -3.0177  -10.6317    2.6207 N.2       1 <0>        -0.2972
     30 O3         -2.4777   -9.9371    3.7306 O.3       1 <0>         0.1061
     31 N4         -1.3607   -9.1957    3.2727 N.2       1 <0>        -0.1846
     32 N5         -2.5031  -10.8176    0.2861 N.pl3     1 <0>        -0.8086
     33 N6          0.1032   -9.4414   -0.0932 N.pl3     1 <0>        -0.7422
     34 H1          6.8377   -1.1692    1.6207 H         1 <0>         0.0705
     35 H2          5.5933   -0.1832    0.8161 H         1 <0>         0.0718
     36 H3          5.5084   -0.4644    2.5717 H         1 <0>         0.0852
     37 H4          5.1287   -2.8810    2.1664 H         1 <0>         0.0672
     38 H5          3.8843   -1.8950    1.3618 H         1 <0>         0.0681
     39 H6          3.4374   -3.9276    1.5093 H         1 <0>         0.1538
     40 H7          2.7885   -7.0831   -1.3313 H         1 <0>         0.1503
     41 H8          7.5535   -4.1692   -1.0826 H         1 <0>         0.0745
     42 H9          7.2792   -5.4759   -2.2597 H         1 <0>         0.0732
     43 H10         6.5666   -2.5819   -3.9458 H         1 <0>         0.1323
     44 H11         8.0147   -1.4292   -5.5620 H         1 <0>         0.1269
     45 H12        10.4077   -1.8789   -5.6372 H         1 <0>         0.1302
     46 H13         9.4551   -5.4197   -1.4827 H         1 <0>         0.1217
     47 H14        11.8494   -5.8612   -1.5510 H         1 <0>         0.1244
     48 H15        13.2977   -4.7081   -3.1673 H         1 <0>         0.1261
     49 H16        12.3729   -3.1060   -4.7518 H         1 <0>         0.1304
     50 H17         1.7296   -5.6709    2.0020 H         1 <0>         0.1539
     51 H18        -1.9898  -10.4562   -0.4535 H         1 <0>         0.4148
     52 H19        -3.1593  -11.5139    0.1265 H         1 <0>         0.4381
     53 H20         0.6885   -8.9977   -0.7267 H         1 <0>         0.4523
     54 H21        -0.2689  -10.3120   -0.3042 H         1 <0>         0.4399
     55 H22         0.2199   -7.3132    2.3145 H         1 <0>         0.4253
@<TRIPOS>BOND
     1    1    2 1
     2    1   34 1
     3    1   35 1
     4    1   36 1
     5    2    3 1
     6    2   37 1
     7    2   38 1
     8    3    4 1
     9    4    9 ar
    10    4    5 ar
    11    5    6 ar
    12    5   39 1
    13    6    7 ar
    14    6   23 1
    15    7    8 ar
    16    7   40 1
    17    8    9 ar
    18    8   22 1
    19    9   10 1
    20   10   11 1
    21   11   12 1
    22   11   41 1
    23   11   42 1
    24   12   17 ar
    25   12   13 ar
    26   13   14 ar
    27   13   43 1
    28   14   15 ar
    29   14   44 1
    30   15   16 ar
    31   15   45 1
    32   16   21 ar
    33   16   17 ar
    34   17   18 ar
    35   18   19 ar
    36   18   46 1
    37   19   20 ar
    38   19   47 1
    39   20   21 ar
    40   20   48 1
    41   21   49 1
    42   23   24 2
    43   23   50 1
    44   24   25 1
    45   25   26 2
    46   25   55 1
    47   26   27 1
    48   26   33 1
    49   27   31 2
    50   27   28 1
    51   28   29 2
    52   28   32 1
    53   29   30 1
    54   30   31 1
    55   32   51 1
    56   32   52 1
    57   33   53 1
    58   33   54 1
@<TRIPOS>MOLECULE
ZINC11900854
   61    63     0     0     0
SMALL
USER_CHARGES
N-[4-[2-[4-(4-chlorophenyl)piperazin-1-yl]ethylsulfamoyl]-3-methyl-phenyl]propanamide
@<TRIPOS>ATOM
      1 C1         -0.3574    4.3382   -3.6855 C.3       1 <0>        -0.1424
      2 C2         -0.4362    3.9748   -2.2014 C.3       1 <0>        -0.1422
      3 C3         -1.5774    3.0161   -1.9789 C.2       1 <0>         0.5122
      4 O1         -2.2606    2.6588   -2.9152 O.2       1 <0>        -0.5049
      5 N1         -1.8424    2.5601   -0.7386 N.am      1 <0>        -0.6826
      6 C4         -2.9712    1.7648   -0.5119 C.ar      1 <0>         0.2210
      7 C5         -4.1302    1.9757   -1.2476 C.ar      1 <0>        -0.1507
      8 C6         -5.2407    1.1856   -1.0251 C.ar      1 <0>         0.0041
      9 C7         -5.2032    0.1925   -0.0633 C.ar      1 <0>        -0.7088
     10 C8         -4.0528   -0.0161    0.6747 C.ar      1 <0>         0.0430
     11 C9         -2.9367    0.7670    0.4530 C.ar      1 <0>        -0.1724
     12 C10        -4.0164   -1.0994    1.7218 C.3       1 <0>        -0.1708
     13 S1         -6.6244   -0.8093    0.2218 S.o2      1 <0>         2.6992
     14 O2         -7.6490   -0.3119   -0.6278 O.2       1 <0>        -0.9489
     15 O3         -6.1851   -2.1599    0.1755 O.2       1 <0>        -0.9362
     16 N2         -7.1195   -0.5258    1.7764 N.pl3     1 <0>        -1.1164
     17 C11        -7.5856    0.8076    2.1651 C.3       1 <0>         0.0920
     18 C12        -8.3292    0.7192    3.4992 C.3       1 <0>        -0.0120
     19 C13        -7.6638    2.9454    4.1820 C.3       1 <0>        -0.0052
     20 C14        -8.1887    4.3462    4.5056 C.3       1 <0>         0.0244
     21 N3         -9.1053    4.2703    5.6518 N.pl3     1 <0>        -0.4854
     22 C15       -10.2380    3.3812    5.3587 C.3       1 <0>         0.0177
     23 C16        -9.7131    1.9804    5.0351 C.3       1 <0>         0.0039
     24 C17        -9.5499    5.5422    6.0225 C.ar      1 <0>         0.0898
     25 C18       -10.9104    5.8181    6.0672 C.ar      1 <0>        -0.1503
     26 C19       -11.3472    7.0742    6.4399 C.ar      1 <0>        -0.0817
     27 C20       -10.4303    8.0611    6.7567 C.ar      1 <0>        -0.0444
     28 C21        -9.0741    7.7907    6.7075 C.ar      1 <0>        -0.0831
     29 C22        -8.6319    6.5346    6.3414 C.ar      1 <0>        -0.1160
     30 Cl1       -10.9826    9.6411    7.2173 Cl        1 <0>        -0.0520
     31 H1          0.4681    5.0316   -3.8465 H         1 <0>         0.0694
     32 H2         -0.1927    3.4348   -4.2727 H         1 <0>         0.0649
     33 H3         -1.2915    4.8073   -3.9948 H         1 <0>         0.0638
     34 H4         -0.6008    4.8782   -1.6143 H         1 <0>         0.1009
     35 H5          0.4979    3.5057   -1.8922 H         1 <0>         0.1008
     36 H6         -1.2507    2.7833   -0.0031 H         1 <0>         0.4174
     37 H7         -4.1616    2.7539   -1.9958 H         1 <0>         0.1463
     38 H8         -6.1409    1.3461   -1.5999 H         1 <0>         0.1483
     39 H9         -2.0384    0.6035    1.0298 H         1 <0>         0.1385
     40 H10        -4.4375   -0.7193    2.6525 H         1 <0>         0.0832
     41 H11        -4.6007   -1.9540    1.3809 H         1 <0>         0.1037
     42 H12        -2.9845   -1.4082    1.8893 H         1 <0>         0.0897
     43 H13        -7.1009   -1.2425    2.4297 H         1 <0>         0.4265
     44 H14        -6.7304    1.4754    2.2694 H         1 <0>         0.0879
     45 H15        -8.2577    1.1950    1.3994 H         1 <0>         0.1031
     46 H16        -9.1844    0.0514    3.3949 H         1 <0>         0.1432
     47 H17        -7.6571    0.3318    4.2649 H         1 <0>         0.1430
     48 H18        -7.1094    2.5583    5.0369 H         1 <0>         0.1449
     49 H19        -7.0064    2.9949    3.3140 H         1 <0>         0.1395
     50 H20        -8.7199    4.7442    3.6409 H         1 <0>         0.0727
     51 H21        -7.3521    5.0001    4.7516 H         1 <0>         0.1299
     52 H22       -10.7925    3.7683    4.5038 H         1 <0>         0.0745
     53 H23       -10.8955    3.3317    6.2267 H         1 <0>         0.1324
     54 H24       -10.5497    1.3264    4.7891 H         1 <0>         0.1417
     55 H25        -9.1821    1.5820    5.8996 H         1 <0>         0.1435
     56 H26       -11.6263    5.0497    5.8150 H         1 <0>         0.1365
     57 H27       -12.4051    7.2877    6.4798 H         1 <0>         0.1412
     58 H28        -8.3607    8.5626    6.9560 H         1 <0>         0.1429
     59 H29        -7.5733    6.3240    6.3036 H         1 <0>         0.1372
     60 N4         -8.8107    2.0677    3.8677 N.4       1 <0>        -0.3975
     61 H30        -9.3279    2.4654    3.0749 H         1 <0>         0.4291
@<TRIPOS>BOND
     1    1    2 1
     2    1   31 1
     3    1   32 1
     4    1   33 1
     5    2    3 1
     6    2   34 1
     7    2   35 1
     8    3    4 2
     9    3    5 am
    10    5    6 1
    11    5   36 1
    12    6   11 ar
    13    6    7 ar
    14    7    8 ar
    15    7   37 1
    16    8    9 ar
    17    8   38 1
    18    9   10 ar
    19    9   13 1
    20   10   11 ar
    21   10   12 1
    22   11   39 1
    23   12   40 1
    24   12   41 1
    25   12   42 1
    26   13   14 2
    27   13   15 2
    28   13   16 1
    29   16   17 1
    30   16   43 1
    31   17   18 1
    32   17   44 1
    33   17   45 1
    34   18   46 1
    35   18   47 1
    36   18   60 1
    37   19   20 1
    38   19   48 1
    39   19   49 1
    40   19   60 1
    41   20   21 1
    42   20   50 1
    43   20   51 1
    44   21   22 1
    45   21   24 1
    46   22   23 1
    47   22   52 1
    48   22   53 1
    49   23   54 1
    50   23   55 1
    51   23   60 1
    52   24   29 ar
    53   24   25 ar
    54   25   26 ar
    55   25   56 1
    56   26   27 ar
    57   26   57 1
    58   27   28 ar
    59   27   30 1
    60   28   29 ar
    61   28   58 1
    62   29   59 1
    63   60   61 1
@<TRIPOS>MOLECULE
ZINC20985116
   55    58     0     0     0
SMALL
USER_CHARGES
N-[[1-[(2-chlorophenyl)methyl]-4-piperidyl]methyl]-5-(6-oxo-1H-pyridazin-3-yl)thiophene-2-sulfonamide
@<TRIPOS>ATOM
      1 C1         -2.9056   -3.0976   -0.6428 C.ar      1 <0>        -0.1055
      2 C2         -3.4405   -3.1020   -1.9178 C.ar      1 <0>        -0.0725
      3 C3         -2.6599   -2.7312   -2.9961 C.ar      1 <0>        -0.0992
      4 C4         -1.3428   -2.3550   -2.7997 C.ar      1 <0>        -0.0297
      5 C5         -0.8084   -2.3503   -1.5238 C.ar      1 <0>        -0.1490
      6 C6         -1.5887   -2.7265   -0.4465 C.ar      1 <0>        -0.0781
      7 C7          0.6260   -1.9412   -1.3090 C.3       1 <0>         0.0414
      8 N1          0.7430   -0.4822   -1.4339 N.4       1 <0>        -0.4008
      9 C8          0.2199    0.1919   -0.2388 C.3       1 <0>        -0.0050
     10 C9          0.2231    1.7058   -0.4628 C.3       1 <0>        -0.1446
     11 C10         1.6534    2.1714   -0.7493 C.3       1 <0>        -0.1030
     12 C11         2.1919    1.4190   -1.9694 C.3       1 <0>        -0.1474
     13 C12         2.1316   -0.0866   -1.7016 C.3       1 <0>        -0.0068
     14 C13         1.6544    3.6746   -1.0342 C.3       1 <0>         0.1157
     15 N2          3.0343    4.1412   -1.1903 N.pl3     1 <0>        -1.1220
     16 S1          3.3360    5.6235   -1.8642 S.o2      1 <0>         2.7271
     17 O1          4.7465    5.7954   -1.8525 O.2       1 <0>        -0.9407
     18 O2          2.5703    5.6896   -3.0595 O.2       1 <0>        -0.9426
     19 C14         2.6717    6.8368   -0.7729 C.2       1 <0>        -0.7788
     20 C15         3.2708    7.4656    0.2711 C.2       1 <0>         0.0052
     21 C16         2.5559    8.3936    0.9955 C.2       1 <0>        -0.1619
     22 C17         1.2563    8.6445    0.6433 C.2       1 <0>        -0.0495
     23 S2          1.0354    7.5503   -0.7501 S.3       1 <0>         0.2038
     24 C18         0.2888    9.5775    1.2570 C.2       1 <0>         0.1116
     25 C19        -1.0215    9.6837    0.7296 C.2       1 <0>        -0.0650
     26 C20        -1.8862   10.5549    1.3219 C.2       1 <0>        -0.1685
     27 C21        -1.4208   11.3002    2.4284 C.2       1 <0>         0.4800
     28 O3         -2.1602   12.0921    2.9906 O.2       1 <0>        -0.5138
     29 N3         -0.1566   11.1308    2.8587 N.am      1 <0>        -0.4460
     30 H1          0.2148   11.7107    3.7165 H         1 <0>         0.4800
     31 N4          0.6451   10.3022    2.2938 N.2       1 <0>        -0.1794
     32 Cl1        -0.3615   -1.8895   -4.1539 Cl        1 <0>        -0.0539
     33 H2         -3.5158   -3.3882    0.1996 H         1 <0>         0.1444
     34 H3         -4.4684   -3.3957   -2.0710 H         1 <0>         0.1471
     35 H4         -3.0776   -2.7354   -3.9921 H         1 <0>         0.1481
     36 H5         -1.1702   -2.7271    0.5491 H         1 <0>         0.1430
     37 H6          0.9488   -2.2502   -0.3039 H         1 <0>         0.1417
     38 H7          1.2626   -2.4261   -2.0638 H         1 <0>         0.1408
     39 H8         -0.8086   -0.1477   -0.0469 H         1 <0>         0.1306
     40 H9          0.8538   -0.0516    0.6266 H         1 <0>         0.1304
     41 H10        -0.4227    1.9511   -1.3188 H         1 <0>         0.0935
     42 H11        -0.1552    2.2106    0.4384 H         1 <0>         0.1181
     43 H12         2.2913    1.9672    0.1233 H         1 <0>         0.1003
     44 H13         1.5786    1.6615   -2.8498 H         1 <0>         0.0938
     45 H14         3.2339    1.7188   -2.1546 H         1 <0>         0.1206
     46 H15         2.7565   -0.3287   -0.8293 H         1 <0>         0.1313
     47 H16         2.5046   -0.6304   -2.5821 H         1 <0>         0.1325
     48 H17         1.0935    3.8728   -1.9594 H         1 <0>         0.0927
     49 H18         1.1799    4.2069   -0.1966 H         1 <0>         0.0738
     50 H19         3.8587    3.5887   -0.7158 H         1 <0>         0.4451
     51 H20         4.2958    7.2428    0.5284 H         1 <0>         0.1539
     52 H21         3.0101    8.9105    1.8279 H         1 <0>         0.1557
     53 H22        -1.3274    9.0899   -0.1190 H         1 <0>         0.1533
     54 H23        -2.8960   10.6717    0.9570 H         1 <0>         0.1732
     55 H24         0.1325   -0.1647   -2.2921 H         1 <0>         0.4353
@<TRIPOS>BOND
     1    1    6 ar
     2    1    2 ar
     3    1   33 1
     4    2    3 ar
     5    2   34 1
     6    3    4 ar
     7    3   35 1
     8    4    5 ar
     9    4   32 1
    10    5    6 ar
    11    5    7 1
    12    6   36 1
    13    7    8 1
    14    7   37 1
    15    7   38 1
    16    8   13 1
    17    8    9 1
    18    8   55 1
    19    9   10 1
    20    9   39 1
    21    9   40 1
    22   10   11 1
    23   10   41 1
    24   10   42 1
    25   11   12 1
    26   11   14 1
    27   11   43 1
    28   12   13 1
    29   12   44 1
    30   12   45 1
    31   13   46 1
    32   13   47 1
    33   14   15 1
    34   14   48 1
    35   14   49 1
    36   15   16 1
    37   15   50 1
    38   16   17 2
    39   16   18 2
    40   16   19 1
    41   19   23 1
    42   19   20 2
    43   20   21 1
    44   20   51 1
    45   21   22 2
    46   21   52 1
    47   22   23 1
    48   22   24 1
    49   24   31 2
    50   24   25 1
    51   25   26 2
    52   25   53 1
    53   26   27 1
    54   26   54 1
    55   27   28 2
    56   27   29 am
    57   29   30 1
    58   29   31 1
@<TRIPOS>MOLECULE
ZINC36601958
   52    54     0     0     0
SMALL
USER_CHARGES

@<TRIPOS>ATOM
      1 C1         -3.4327   -4.4170    0.1855 C.3       1 <0>         0.0334
      2 O1         -3.0702   -3.2006    0.8420 O.3       1 <0>        -0.3463
      3 C2         -2.2407   -3.2991    1.8927 C.2       1 <0>         0.4511
      4 O2         -1.8359   -4.3821    2.2435 O.2       1 <0>        -0.4980
      5 C3         -1.8144   -2.0587    2.6350 C.3       1 <0>         0.1805
      6 H1         -1.2951   -1.3868    1.9516 H         1 <0>         0.1371
      7 C4         -3.0485   -1.3548    3.2029 C.3       1 <0>        -0.1087
      8 C5         -2.6294   -0.0324    3.8484 C.3       1 <0>        -0.0899
      9 S1         -4.0925    0.8022    4.5217 S.3       1 <0>        -0.2494
     10 C6         -3.4331    2.3313    5.2413 C.3       1 <0>        -0.1212
     11 N1         -0.9163   -2.4301    3.7312 N.am      1 <0>        -0.7216
     12 C7          0.4018   -2.5876    3.4986 C.2       1 <0>         0.7244
     13 O3          0.8325   -2.5100    2.3642 O.2       1 <0>        -0.5524
     14 N2          1.2426   -2.8310    4.5234 N.am      1 <0>        -0.6201
     15 C8          2.6962   -2.8866    4.3079 C.3       1 <0>         0.1183
     16 C9          3.1946   -4.3055    4.6112 C.3       1 <0>        -0.0810
     17 C10         2.5654   -4.7766    5.8960 C.2       1 <0>         0.0840
     18 C11         1.4707   -4.2283    6.4655 C.2       1 <0>         0.0068
     19 N3          1.2016   -4.9046    7.5843 N.pl3     1 <0>        -0.4572
     20 C12         2.0896   -5.8526    7.7353 C.cat     1 <0>         0.3089
     21 N4          2.9593   -5.8032    6.7001 N.pl3     1 <0>        -0.5020
     22 H2          3.7197   -6.3883    6.5574 H         1 <0>         0.4682
     23 C13         0.7278   -3.0418    5.8884 C.3       1 <0>         0.2620
     24 H3         -0.3408   -3.2540    5.8531 H         1 <0>         0.1226
     25 C14         0.9811   -1.8157    6.7271 C.ar      1 <0>        -0.1171
     26 C15         2.2775   -1.4144    6.9906 C.ar      1 <0>        -0.0960
     27 C16         2.5102   -0.2896    7.7594 C.ar      1 <0>        -0.0847
     28 C17         1.4457    0.4346    8.2651 C.ar      1 <0>        -0.0733
     29 C18         0.1487    0.0328    8.0011 C.ar      1 <0>        -0.0820
     30 C19        -0.0831   -1.0892    7.2279 C.ar      1 <0>        -0.0928
     31 Br1         1.7635    1.9733    9.3175 Br        1 <0>        -0.0238
     32 H4         -3.9342   -5.0766    0.8937 H         1 <0>         0.0622
     33 H5         -4.1047   -4.1960   -0.6438 H         1 <0>         0.1091
     34 H6         -2.5357   -4.9062   -0.1943 H         1 <0>         0.0627
     35 H7         -3.7569   -1.1578    2.3982 H         1 <0>         0.1139
     36 H8         -3.5178   -1.9922    3.9522 H         1 <0>         0.0874
     37 H9         -1.9209   -0.2294    4.6530 H         1 <0>         0.0805
     38 H10        -2.1601    0.6050    3.0991 H         1 <0>         0.0903
     39 H11        -4.2484    2.9089    5.6769 H         1 <0>         0.1068
     40 H12        -2.7078    2.0847    6.0166 H         1 <0>         0.0755
     41 H13        -2.9469    2.9191    4.4627 H         1 <0>         0.0797
     42 H14        -1.2704   -2.5627    4.6245 H         1 <0>         0.3986
     43 H15         2.9209   -2.6352    3.2714 H         1 <0>         0.1290
     44 H16         3.1905   -2.1771    4.9715 H         1 <0>         0.0924
     45 H17         2.9103   -4.9741    3.7986 H         1 <0>         0.1183
     46 H18         4.2794   -4.2969    4.7173 H         1 <0>         0.1203
     47 H19         2.1234   -6.5584    8.5520 H         1 <0>         0.2718
     48 H20         3.1085   -1.9802    6.5960 H         1 <0>         0.1325
     49 H21         3.5230    0.0236    7.9655 H         1 <0>         0.1415
     50 H22        -0.6827    0.5980    8.3957 H         1 <0>         0.1437
     51 H23        -1.0958   -1.4006    7.0183 H         1 <0>         0.1375
     52 H24         0.4650   -4.7223    8.1885 H         1 <0>         0.4664
@<TRIPOS>BOND
     1    1    2 1
     2    1   32 1
     3    1   33 1
     4    1   34 1
     5    2    3 1
     6    3    4 2
     7    3    5 1
     8    5    6 1
     9    5    7 1
    10    5   11 1
    11    7    8 1
    12    7   35 1
    13    7   36 1
    14    8    9 1
    15    8   37 1
    16    8   38 1
    17    9   10 1
    18   10   39 1
    19   10   40 1
    20   10   41 1
    21   11   12 am
    22   11   42 1
    23   12   13 2
    24   12   14 am
    25   14   23 1
    26   14   15 1
    27   15   16 1
    28   15   43 1
    29   15   44 1
    30   16   17 1
    31   16   45 1
    32   16   46 1
    33   17   21 1
    34   17   18 2
    35   18   19 1
    36   18   23 1
    37   19   20 2
    38   19   52 1
    39   20   21 1
    40   20   47 1
    41   21   22 1
    42   23   24 1
    43   23   25 1
    44   25   30 ar
    45   25   26 ar
    46   26   27 ar
    47   26   48 1
    48   27   28 ar
    49   27   49 1
    50   28   29 ar
    51   28   31 1
    52   29   30 ar
    53   29   50 1
    54   30   51 1
@<TRIPOS>MOLECULE
ZINC15162855
   57    59     0     0     0
SMALL
USER_CHARGES

@<TRIPOS>ATOM
      1 C1         -1.3611    2.0125    0.5700 C.3       1 <0>        -0.1748
      2 C2         -1.2990    0.5106    0.4632 C.2       1 <0>         0.2428
      3 N1         -1.0637   -0.2085    1.5233 N.2       1 <0>        -0.3428
      4 N2         -0.8684    0.4143    2.7630 N.pl3     1 <0>        -0.5044
      5 C3         -0.6197   -0.3458    3.8836 C.cat     1 <0>         0.4902
      6 N3         -0.5659   -1.6462    3.7911 N.pl3     1 <0>        -0.7145
      7 S1         -0.3740    0.4374    5.4427 S.3       1 <0>         0.1270
      8 C4         -0.0874   -0.9414    6.5861 C.3       1 <0>        -0.1682
      9 H1         -0.9030   -1.6622    6.5281 H         1 <0>         0.1749
     10 C5          0.0782   -0.4240    8.0296 C.3       1 <0>        -0.1221
     11 C6          1.4808   -0.8532    8.4014 C.2       1 <0>         0.5259
     12 O1          2.0198   -0.6441    9.4669 O.2       1 <0>        -0.4233
     13 N4          2.0319   -1.5008    7.3674 N.am      1 <0>        -0.5091
     14 C7          1.2371   -1.6111    6.2914 C.2       1 <0>         0.5319
     15 O2          1.5313   -2.1578    5.2502 O.2       1 <0>        -0.4534
     16 C8          3.3324   -2.0232    7.4054 C.ar      1 <0>         0.1029
     17 C9          3.6911   -2.9243    8.3991 C.ar      1 <0>        -0.0908
     18 C10         4.9726   -3.4381    8.4344 C.ar      1 <0>        -0.0878
     19 C11         5.8989   -3.0561    7.4814 C.ar      1 <0>        -0.0888
     20 C12         5.5449   -2.1583    6.4897 C.ar      1 <0>        -0.0246
     21 C13         4.2618   -1.6450    6.4467 C.ar      1 <0>        -0.0919
     22 Cl1         6.7108   -1.6807    5.2954 Cl        1 <0>        -0.0460
     23 C14        -1.4967   -0.1196   -0.7914 C.2       1 <0>        -0.2091
     24 C15        -1.4411   -1.4643   -0.8870 C.2       1 <0>         0.0477
     25 C16        -1.6462   -2.1183   -2.1888 C.ar      1 <0>        -0.1741
     26 C17        -1.8933   -1.3474   -3.3300 C.ar      1 <0>        -0.0312
     27 C18        -2.0843   -1.9636   -4.5466 C.ar      1 <0>        -0.2091
     28 C19        -2.0318   -3.3505   -4.6420 C.ar      1 <0>         0.2489
     29 C20        -1.7863   -4.1208   -3.5098 C.ar      1 <0>        -0.2084
     30 C21        -1.5890   -3.5125   -2.2903 C.ar      1 <0>        -0.0280
     31 N5         -2.2262   -3.9705   -5.8762 N.pl3     1 <0>        -0.6259
     32 C22        -2.3622   -3.1606   -7.0894 C.3       1 <0>         0.0805
     33 C23        -2.2945   -5.4315   -5.9593 C.3       1 <0>         0.0839
     34 H2         -0.3670    2.4296    0.4091 H         1 <0>         0.1059
     35 H3         -2.0451    2.4024   -0.1838 H         1 <0>         0.1086
     36 H4         -1.7161    2.2918    1.5620 H         1 <0>         0.0719
     37 H5         -0.9083    1.3810    2.8317 H         1 <0>         0.4214
     38 H6         -0.3907   -2.1817    4.5806 H         1 <0>         0.4357
     39 H7         -0.0116    0.6618    8.0606 H         1 <0>         0.1452
     40 H8         -0.6532   -0.8895    8.6902 H         1 <0>         0.1623
     41 H9          2.9685   -3.2231    9.1441 H         1 <0>         0.1380
     42 H10         5.2517   -4.1387    9.2074 H         1 <0>         0.1500
     43 H11         6.9005   -3.4589    7.5113 H         1 <0>         0.1478
     44 H12         3.9842   -0.9477    5.6701 H         1 <0>         0.1370
     45 H13        -1.6918    0.4766   -1.6705 H         1 <0>         0.1489
     46 H14        -1.2460   -2.0606   -0.0079 H         1 <0>         0.1281
     47 H15        -1.9346   -0.2707   -3.2567 H         1 <0>         0.1294
     48 H16        -2.2754   -1.3693   -5.4279 H         1 <0>         0.1322
     49 H17        -1.7467   -5.1972   -3.5882 H         1 <0>         0.1308
     50 H18        -1.3944   -4.1111   -1.4126 H         1 <0>         0.1269
     51 H19        -2.1861   -2.1123   -6.8481 H         1 <0>         0.0808
     52 H20        -1.6334   -3.4904   -7.8299 H         1 <0>         0.0648
     53 H21        -3.3681   -3.2766   -7.4928 H         1 <0>         0.0604
     54 H22        -3.3287   -5.7543   -5.8395 H         1 <0>         0.0565
     55 H23        -1.9221   -5.7580   -6.9303 H         1 <0>         0.0739
     56 H24        -1.6835   -5.8693   -5.1699 H         1 <0>         0.0729
     57 H25        -0.7012   -2.0773    2.9328 H         1 <0>         0.4421
@<TRIPOS>BOND
     1    1    2 1
     2    1   34 1
     3    1   35 1
     4    1   36 1
     5    2    3 2
     6    2   23 1
     7    3    4 1
     8    4    5 1
     9    4   37 1
    10    5    6 2
    11    5    7 1
    12    6   38 1
    13    6   57 1
    14    7    8 1
    15    8    9 1
    16    8   14 1
    17    8   10 1
    18   10   11 1
    19   10   39 1
    20   10   40 1
    21   11   12 2
    22   11   13 am
    23   13   14 am
    24   13   16 1
    25   14   15 2
    26   16   21 ar
    27   16   17 ar
    28   17   18 ar
    29   17   41 1
    30   18   19 ar
    31   18   42 1
    32   19   20 ar
    33   19   43 1
    34   20   21 ar
    35   20   22 1
    36   21   44 1
    37   23   24 2
    38   23   45 1
    39   24   25 1
    40   24   46 1
    41   25   30 ar
    42   25   26 ar
    43   26   27 ar
    44   26   47 1
    45   27   28 ar
    46   27   48 1
    47   28   29 ar
    48   28   31 1
    49   29   30 ar
    50   29   49 1
    51   30   50 1
    52   31   32 1
    53   31   33 1
    54   32   51 1
    55   32   52 1
    56   32   53 1
    57   33   54 1
    58   33   55 1
    59   33   56 1
@<TRIPOS>MOLECULE
ZINC63557361
   59    63     0     0     0
SMALL
USER_CHARGES

@<TRIPOS>ATOM
      1 C1         -0.0184    1.5028    0.0103 C.3       1 <0>        -0.1279
      2 C2          0.0021   -0.0041    0.0020 C.ar      1 <0>        -0.1139
      3 C3          0.0054   -0.6798   -1.2260 C.ar      1 <0>         0.0591
      4 C4          0.0232   -2.0265   -1.3172 C.ar      1 <0>        -0.2084
      5 C5          0.0393   -2.8264   -0.1414 C.ar      1 <0>         0.3265
      6 N1          0.0568   -4.1260    0.0301 N.pl3     1 <0>        -0.5870
      7 C6          0.0669   -4.4078    1.4699 C.3       1 <0>         0.0619
      8 C7          0.0525   -3.0602    2.1563 C.2       1 <0>         0.0670
      9 C8          0.0362   -2.1366    1.1684 C.ar      1 <0>        -0.1629
     10 C9          0.0223   -0.6689    1.1796 C.ar      1 <0>        -0.0202
     11 C10         0.0550   -2.7994    3.6406 C.3       1 <0>        -0.1136
     12 C11        -1.3793   -2.8538    4.1703 C.3       1 <0>         0.1356
     13 N2         -1.3769   -2.6002    5.6132 N.am      1 <0>        -0.6220
     14 C12        -1.2477   -3.6437    6.6371 C.3       1 <0>         0.1148
     15 C13        -1.7275   -2.9917    7.9529 C.3       1 <0>        -0.1232
     16 H1         -2.7896   -3.1757    8.1148 H         1 <0>         0.1264
     17 C14        -1.4610   -1.4936    7.6778 C.3       1 <0>        -0.1463
     18 C15        -1.4868   -1.3814    6.1693 C.2       1 <0>         0.5254
     19 O1         -1.5939   -0.3432    5.5516 O.2       1 <0>        -0.5157
     20 C16        -0.9139   -3.4788    9.1241 C.2       1 <0>         0.5352
     21 O2         -0.0199   -4.2797    8.9503 O.2       1 <0>        -0.5162
     22 N3         -1.1798   -3.0245   10.3648 N.am      1 <0>        -0.7212
     23 C17        -0.3889   -3.4980   11.5034 C.3       1 <0>         0.4188
     24 H2          0.6739   -3.5097   11.2618 H         1 <0>         0.1386
     25 N4         -0.6496   -2.6883   12.7012 N.pl3     1 <0>        -0.7406
     26 C18        -1.1994   -3.3357   13.8101 C.ar      1 <0>         0.1305
     27 C19        -1.5153   -2.7279   15.0380 C.ar      1 <0>        -0.1082
     28 C20        -2.0549   -3.4523   16.0752 C.ar      1 <0>        -0.1634
     29 C21        -2.3061   -4.8100   15.9444 C.ar      1 <0>         0.1117
     30 C22        -2.0037   -5.4350   14.7415 C.ar      1 <0>        -0.0777
     31 C23        -1.4638   -4.7046   13.7069 C.ar      1 <0>        -0.0972
     32 S1         -0.9582   -5.1538   12.0607 S.3       1 <0>        -0.1194
     33 O3         -2.8391   -5.5174   16.9764 O.3       1 <0>        -0.3122
     34 C24        -3.1201   -4.7984   18.1790 C.3       1 <0>         0.0263
     35 H3          1.0042    1.8801    0.0026 H         1 <0>         0.0866
     36 H4         -0.5455    1.8639   -0.8728 H         1 <0>         0.0815
     37 H5         -0.5286    1.8543    0.9071 H         1 <0>         0.0818
     38 H6         -0.0072   -0.0993   -2.1366 H         1 <0>         0.1606
     39 H7          0.0250   -2.4990   -2.2884 H         1 <0>         0.1614
     40 H8         -0.8185   -4.9800    1.7469 H         1 <0>         0.1729
     41 H9          0.9693   -4.9569    1.7389 H         1 <0>         0.1739
     42 H10         0.0241   -0.1279    2.1144 H         1 <0>         0.1606
     43 H11         0.6565   -3.5579    4.1417 H         1 <0>         0.1160
     44 H12         0.4773   -1.8136    3.8355 H         1 <0>         0.1122
     45 H13        -1.9807   -2.0954    3.6692 H         1 <0>         0.0952
     46 H14        -1.8015   -3.8396    3.9754 H         1 <0>         0.0929
     47 H15        -1.8780   -4.4973    6.3874 H         1 <0>         0.0928
     48 H16        -0.2074   -3.9560    6.7284 H         1 <0>         0.0983
     49 H17        -2.2438   -0.8790    8.1223 H         1 <0>         0.1181
     50 H18        -0.4829   -1.2034    8.0614 H         1 <0>         0.1141
     51 H19        -1.8948   -2.3839   10.5039 H         1 <0>         0.4072
     52 H20        -0.4472   -1.7398   12.7213 H         1 <0>         0.4147
     53 H21        -1.3304   -1.6720   15.1694 H         1 <0>         0.1282
     54 H22        -2.2862   -2.9562   17.0062 H         1 <0>         0.1366
     55 H23        -2.1910   -6.4915   14.6183 H         1 <0>         0.1405
     56 H24        -3.5406   -5.4789   18.9194 H         1 <0>         0.1039
     57 H25        -2.1985   -4.3642   18.5665 H         1 <0>         0.0573
     58 H26        -3.8357   -4.0036   17.9683 H         1 <0>         0.0568
     59 H27         0.0620   -4.7902   -0.6768 H         1 <0>         0.4554
@<TRIPOS>BOND
     1    1    2 1
     2    1   35 1
     3    1   36 1
     4    1   37 1
     5    2   10 ar
     6    2    3 ar
     7    3    4 ar
     8    3   38 1
     9    4    5 ar
    10    4   39 1
    11    5    9 ar
    12    5    6 2
    13    6    7 1
    14    6   59 1
    15    7    8 1
    16    7   40 1
    17    7   41 1
    18    8    9 2
    19    8   11 1
    20    9   10 ar
    21   10   42 1
    22   11   12 1
    23   11   43 1
    24   11   44 1
    25   12   13 1
    26   12   45 1
    27   12   46 1
    28   13   18 am
    29   13   14 1
    30   14   15 1
    31   14   47 1
    32   14   48 1
    33   15   16 1
    34   15   17 1
    35   15   20 1
    36   17   18 1
    37   17   49 1
    38   17   50 1
    39   18   19 2
    40   20   21 2
    41   20   22 am
    42   22   23 1
    43   22   51 1
    44   23   24 1
    45   23   32 1
    46   23   25 1
    47   25   26 1
    48   25   52 1
    49   26   31 ar
    50   26   27 ar
    51   27   28 ar
    52   27   53 1
    53   28   29 ar
    54   28   54 1
    55   29   30 ar
    56   29   33 1
    57   30   31 ar
    58   30   55 1
    59   31   32 1
    60   33   34 1
    61   34   56 1
    62   34   57 1
    63   34   58 1
@<TRIPOS>MOLECULE
ZINC05559598
   60    61     0     0     0
SMALL
USER_CHARGES
1-[5-(dimethylsulfamoyl)-2-methyl-phenyl]-3-(2,2,6,6-tetramethyl-4-piperidyl)-thiourea
@<TRIPOS>ATOM
      1 C1         -1.9108    0.7116   -0.3928 C.3       1 <0>        -0.1280
      2 C2         -0.8941   -0.3823   -0.1910 C.ar      1 <0>        -0.0268
      3 C3         -0.8587   -1.0821    0.9994 C.ar      1 <0>        -0.1315
      4 C4          0.0738   -2.0859    1.1855 C.ar      1 <0>        -0.0035
      5 C5          0.9735   -2.3930    0.1809 C.ar      1 <0>        -0.6753
      6 C6          0.9436   -1.6968   -1.0113 C.ar      1 <0>         0.0340
      7 C7          0.0043   -0.6917   -1.2035 C.ar      1 <0>         0.0934
      8 N1         -0.0330    0.0109   -2.4126 N.pl3     1 <0>        -0.6191
      9 C8          0.0611   -0.6537   -3.5814 C.2       1 <0>         0.5536
     10 S1          0.0852   -2.3655   -3.5932 S.2       1 <0>        -0.5957
     11 N2          0.1364    0.0294   -4.7408 N.pl3     1 <0>        -0.6853
     12 C9          0.2389   -0.6946   -6.0141 C.3       1 <0>         0.1400
     13 C10         1.7084   -1.0013   -6.3017 C.3       1 <0>        -0.1406
     14 C11         1.8468   -1.7369   -7.6324 C.3       1 <0>         0.0684
     15 C12        -0.1870   -0.5325   -8.4809 C.3       1 <0>         0.0707
     16 C13        -0.3026    0.1867   -7.1393 C.3       1 <0>        -0.1379
     17 C14        -1.2725   -1.6112   -8.5791 C.3       1 <0>        -0.1766
     18 C15        -0.4716    0.5043   -9.5905 C.3       1 <0>        -0.1844
     19 C16         1.3995   -3.1936   -7.4618 C.3       1 <0>        -0.1719
     20 C17         3.3478   -1.7593   -7.9976 C.3       1 <0>        -0.1835
     21 S2          2.1594   -3.6734    0.4228 S.o2      1 <0>         2.6936
     22 O1          3.2396   -3.3984   -0.4586 O.2       1 <0>        -0.9528
     23 O2          2.3360   -3.8035    1.8268 O.2       1 <0>        -0.9505
     24 N3          1.4695   -5.0851   -0.1002 N.pl3     1 <0>        -1.0001
     25 C18         1.6246   -5.5031   -1.4957 C.3       1 <0>         0.0949
     26 C19         0.7040   -5.9158    0.8325 C.3       1 <0>         0.0796
     27 H1         -1.4939    1.6614   -0.0579 H         1 <0>         0.0836
     28 H2         -2.1662    0.7796   -1.4503 H         1 <0>         0.0644
     29 H3         -2.8077    0.4850    0.1837 H         1 <0>         0.0850
     30 H4         -1.5603   -0.8452    1.7856 H         1 <0>         0.1431
     31 H5          0.0995   -2.6316    2.1171 H         1 <0>         0.1470
     32 H6          1.6468   -1.9366   -1.7951 H         1 <0>         0.1528
     33 H7         -0.1267    0.9763   -2.4098 H         1 <0>         0.4105
     34 H8          0.1227    0.9993   -4.7340 H         1 <0>         0.4036
     35 H9         -0.3344   -1.6153   -5.9437 H         1 <0>         0.1357
     36 H10         2.2726   -0.0669   -6.3424 H         1 <0>         0.0885
     37 H11         2.1128   -1.6224   -5.4992 H         1 <0>         0.1278
     38 H12        -1.3510    0.4223   -6.9423 H         1 <0>         0.1179
     39 H13         0.2667    1.1183   -7.1760 H         1 <0>         0.0946
     40 H14        -2.2551   -1.1461   -8.5002 H         1 <0>         0.1057
     41 H15        -1.1893   -2.1242   -9.5373 H         1 <0>         0.0846
     42 H16        -1.1446   -2.3300   -7.7698 H         1 <0>         0.0865
     43 H17         0.2570    1.3126   -9.5279 H         1 <0>         0.0817
     44 H18        -0.3972    0.0227  -10.5655 H         1 <0>         0.0856
     45 H19        -1.4753    0.9091   -9.4608 H         1 <0>         0.1060
     46 H20         1.5906   -3.7427   -8.3838 H         1 <0>         0.0805
     47 H21         1.9565   -3.6513   -6.6443 H         1 <0>         0.1107
     48 H22         0.3336   -3.2223   -7.2361 H         1 <0>         0.0841
     49 H23         3.7054   -0.7379   -8.1278 H         1 <0>         0.0793
     50 H24         3.9093   -2.2416   -7.1974 H         1 <0>         0.1081
     51 H25         3.4878   -2.3144   -8.9252 H         1 <0>         0.0842
     52 H26         2.5197   -6.1174   -1.5937 H         1 <0>         0.0595
     53 H27         0.7522   -6.0808   -1.8011 H         1 <0>         0.0733
     54 H28         1.7173   -4.6220   -2.1308 H         1 <0>         0.0753
     55 H29        -0.3424   -5.6113    0.8157 H         1 <0>         0.0573
     56 H30         0.7828   -6.9618    0.5362 H         1 <0>         0.0809
     57 H31         1.1021   -5.7926    1.8397 H         1 <0>         0.0854
     58 N4          1.1602   -1.0874   -8.7812 N.4       1 <0>        -0.5100
     59 H32         1.0573   -1.7861   -9.5264 H         1 <0>         0.4335
     60 H33         1.7541   -0.3182   -9.1128 H         1 <0>         0.4287
@<TRIPOS>BOND
     1    1    2 1
     2    1   27 1
     3    1   28 1
     4    1   29 1
     5    2    7 ar
     6    2    3 ar
     7    3    4 ar
     8    3   30 1
     9    4    5 ar
    10    4   31 1
    11    5    6 ar
    12    5   21 1
    13    6    7 ar
    14    6   32 1
    15    7    8 1
    16    8    9 1
    17    8   33 1
    18    9   10 2
    19    9   11 1
    20   11   12 1
    21   11   34 1
    22   12   16 1
    23   12   13 1
    24   12   35 1
    25   13   14 1
    26   13   36 1
    27   13   37 1
    28   14   19 1
    29   14   20 1
    30   14   58 1
    31   15   16 1
    32   15   17 1
    33   15   18 1
    34   15   58 1
    35   16   38 1
    36   16   39 1
    37   17   40 1
    38   17   41 1
    39   17   42 1
    40   18   43 1
    41   18   44 1
    42   18   45 1
    43   19   46 1
    44   19   47 1
    45   19   48 1
    46   20   49 1
    47   20   50 1
    48   20   51 1
    49   21   22 2
    50   21   23 2
    51   21   24 1
    52   24   25 1
    53   24   26 1
    54   25   52 1
    55   25   53 1
    56   25   54 1
    57   26   55 1
    58   26   56 1
    59   26   57 1
    60   58   59 1
    61   58   60 1
@<TRIPOS>MOLECULE
ZINC02330105
   56    59     0     0     0
SMALL
USER_CHARGES
2-[(4-amino-5,6,7,8-tetrahydrobenzothiopheno[3,2-e]pyrimidin-2-yl)sulfanyl]-N-(3-morpholinopropyl)acetamide
@<TRIPOS>ATOM
      1 C1         -0.1385    1.6906    1.1359 C.3       1 <0>        -0.1207
      2 C2          0.6873    1.3408   -0.1056 C.3       1 <0>        -0.1155
      3 C3         -0.0813    1.7945   -1.3547 C.3       1 <0>        -0.0432
      4 C4         -0.5578    3.1975   -1.1360 C.2       1 <0>        -0.1467
      5 C5         -0.6137    3.8700    0.0352 C.2       1 <0>        -0.0850
      6 C6         -1.1199    5.2325   -0.0178 C.ar      1 <0>        -0.2443
      7 C7         -1.2730    6.1347    1.0750 C.ar      1 <0>         0.5060
      8 N1         -1.7612    7.3354    0.7751 N.ar      1 <0>        -0.6070
      9 C8         -2.0973    7.7114   -0.4501 C.ar      1 <0>         0.3302
     10 N2         -1.9782    6.9143   -1.5143 N.ar      1 <0>        -0.4719
     11 C9         -1.5005    5.7045   -1.2989 C.ar      1 <0>         0.1399
     12 S1         -1.1704    4.3321   -2.3565 S.3       1 <0>         0.1336
     13 S2         -2.7313    9.3384   -0.6856 S.3       1 <0>         0.1059
     14 C10        -2.6773    9.9465    1.0183 C.3       1 <0>        -0.1572
     15 C11        -3.1889   11.3633    1.0625 C.2       1 <0>         0.5360
     16 O1         -3.5541   11.9083    0.0424 O.2       1 <0>        -0.5096
     17 N3         -3.2407   12.0248    2.2356 N.am      1 <0>        -0.7320
     18 C12        -3.7380   13.4021    2.2786 C.3       1 <0>         0.1240
     19 C13        -3.6924   13.9161    3.7189 C.3       1 <0>        -0.1639
     20 C14        -4.2118   15.3546    3.7638 C.3       1 <0>        -0.0008
     21 C15        -5.1155   15.1143    5.9983 C.3       1 <0>        -0.0433
     22 C16        -4.9946   15.6183    7.4388 C.3       1 <0>         0.0349
     23 O2         -5.2235   17.0298    7.4656 O.3       1 <0>        -0.3562
     24 C17        -4.3179   17.7755    6.6476 C.3       1 <0>         0.0343
     25 C18        -4.4320   17.2934    5.1990 C.3       1 <0>        -0.0386
     26 N4         -0.9348    5.7829    2.3691 N.pl3     1 <0>        -0.8269
     27 C19        -0.1613    3.2060    1.3332 C.3       1 <0>        -0.0706
     28 H1         -1.1585    1.3290    1.0063 H         1 <0>         0.0698
     29 H2          0.3046    1.2159    2.0114 H         1 <0>         0.0750
     30 H3          0.8480    0.2635   -0.1463 H         1 <0>         0.0796
     31 H4          1.6486    1.8526   -0.0616 H         1 <0>         0.0701
     32 H5          0.5781    1.7627   -2.2220 H         1 <0>         0.0879
     33 H6         -0.9364    1.1384   -1.5169 H         1 <0>         0.0895
     34 H7         -3.3022    9.3147    1.6495 H         1 <0>         0.1269
     35 H8         -1.6499    9.9197    1.3812 H         1 <0>         0.1270
     36 H9         -2.9486   11.5889    3.0515 H         1 <0>         0.4058
     37 H10        -3.1131   14.0339    1.6474 H         1 <0>         0.0818
     38 H11        -4.7655   13.4289    1.9157 H         1 <0>         0.0816
     39 H12        -4.3173   13.2843    4.3502 H         1 <0>         0.0949
     40 H13        -2.6649   13.8893    4.0819 H         1 <0>         0.0957
     41 H14        -3.5869   15.9864    3.1326 H         1 <0>         0.1370
     42 H15        -5.2392   15.3813    3.4009 H         1 <0>         0.1376
     43 H16        -6.1312   15.2797    5.6389 H         1 <0>         0.1418
     44 H17        -4.8857   14.0494    5.9647 H         1 <0>         0.1405
     45 H18        -3.9948   15.4045    7.8165 H         1 <0>         0.0809
     46 H19        -5.7349   15.1176    8.0629 H         1 <0>         0.1418
     47 H20        -3.2984   17.6244    7.0023 H         1 <0>         0.0813
     48 H21        -4.5688   18.8350    6.6994 H         1 <0>         0.1427
     49 H22        -3.7032   17.8190    4.5820 H         1 <0>         0.1424
     50 H23        -5.4367   17.4935    4.8268 H         1 <0>         0.1416
     51 H24        -1.2669    6.3050    3.1161 H         1 <0>         0.4082
     52 H25        -0.3656    5.0141    2.5297 H         1 <0>         0.4179
     53 H26         0.8387    3.5539    1.5920 H         1 <0>         0.0807
     54 H27        -0.8562    3.4590    2.1341 H         1 <0>         0.0775
     55 N5         -4.1433   15.8446    5.1575 N.4       1 <0>        -0.3959
     56 H28        -3.1974   15.6819    5.5224 H         1 <0>         0.4269
@<TRIPOS>BOND
     1    1   27 1
     2    1    2 1
     3    1   28 1
     4    1   29 1
     5    2    3 1
     6    2   30 1
     7    2   31 1
     8    3    4 1
     9    3   32 1
    10    3   33 1
    11    4   12 1
    12    4    5 2
    13    5    6 1
    14    5   27 1
    15    6   11 ar
    16    6    7 ar
    17    7    8 ar
    18    7   26 1
    19    8    9 ar
    20    9   10 ar
    21    9   13 1
    22   10   11 ar
    23   11   12 1
    24   13   14 1
    25   14   15 1
    26   14   34 1
    27   14   35 1
    28   15   16 2
    29   15   17 am
    30   17   18 1
    31   17   36 1
    32   18   19 1
    33   18   37 1
    34   18   38 1
    35   19   20 1
    36   19   39 1
    37   19   40 1
    38   20   41 1
    39   20   42 1
    40   20   55 1
    41   21   22 1
    42   21   43 1
    43   21   44 1
    44   21   55 1
    45   22   23 1
    46   22   45 1
    47   22   46 1
    48   23   24 1
    49   24   25 1
    50   24   47 1
    51   24   48 1
    52   25   49 1
    53   25   50 1
    54   25   55 1
    55   26   51 1
    56   26   52 1
    57   27   53 1
    58   27   54 1
    59   55   56 1
@<TRIPOS>MOLECULE
ZINC36612918
   42    42     0     0     0
SMALL
USER_CHARGES

@<TRIPOS>ATOM
      1 C1         -0.0187    1.5258    0.0104 C.3       1 <0>        -0.1580
      2 C2          0.0021   -0.0041    0.0020 C.3       1 <0>         0.0476
      3 O1          0.6709   -0.4649   -1.1737 O.3       1 <0>        -0.2850
      4 C3          0.7768   -1.8111   -1.3363 C.ar      1 <0>         0.1535
      5 C4          0.2433   -2.6689   -0.3876 C.ar      1 <0>        -0.1563
      6 C5          0.3510   -4.0370   -0.5538 C.ar      1 <0>        -0.0896
      7 C6          0.9912   -4.5534   -1.6660 C.ar      1 <0>        -0.0974
      8 C7          1.5264   -3.7022   -2.6168 C.ar      1 <0>        -0.0540
      9 C8          1.4159   -2.3294   -2.4581 C.ar      1 <0>         0.1251
     10 O2          1.9359   -1.4910   -3.3943 O.3       1 <0>        -0.2815
     11 C9          3.2925   -1.0795   -3.2148 C.3       1 <0>         0.0433
     12 C10         3.6918   -0.1604   -4.3403 C.2       1 <0>         0.5215
     13 O3          2.8933    0.1152   -5.2105 O.2       1 <0>        -0.5104
     14 N1          4.9364    0.3554   -4.3798 N.am      1 <0>        -0.8481
     15 Br1         2.4015   -4.4113   -4.1358 Br        1 <0>         0.0317
     16 Br2         1.1357   -6.4259   -1.8873 Br        1 <0>        -0.0008
     17 C11        -0.2300   -4.9679    0.4792 C.3       1 <0>         0.0341
     18 N2         -1.4688   -5.5631   -0.0395 N.4       1 <0>        -0.5099
     19 C12        -2.0351   -6.4705    0.9674 C.3       1 <0>         0.0214
     20 C13        -2.4570   -5.6664    2.1988 C.3       1 <0>        -0.1852
     21 C14        -3.2550   -7.1845    0.3819 C.3       1 <0>        -0.1858
     22 H1          1.0039    1.9031    0.0027 H         1 <0>         0.0719
     23 H2         -0.5459    1.8868   -0.8726 H         1 <0>         0.0737
     24 H3         -0.5289    1.8773    0.9072 H         1 <0>         0.0881
     25 H4          0.5293   -0.3651    0.8851 H         1 <0>         0.0707
     26 H5         -1.0205   -0.3814    0.0098 H         1 <0>         0.0696
     27 H6         -0.2564   -2.2685    0.4820 H         1 <0>         0.1605
     28 H7          3.3902   -0.5542   -2.2647 H         1 <0>         0.0940
     29 H8          3.9409   -1.9557   -3.2138 H         1 <0>         0.0913
     30 H9          5.5751    0.1351   -3.6838 H         1 <0>         0.4038
     31 H10         5.1934    0.9470   -5.1043 H         1 <0>         0.4137
     32 H11         0.4876   -5.7579    0.7009 H         1 <0>         0.1488
     33 H12        -0.4485   -4.4096    1.3895 H         1 <0>         0.1533
     34 H13        -2.1330   -4.8318   -0.2448 H         1 <0>         0.4280
     35 H14        -1.2855   -7.2080    1.2544 H         1 <0>         0.1424
     36 H15        -2.8772   -6.3397    2.9459 H         1 <0>         0.1095
     37 H16        -1.5879   -5.1578    2.6159 H         1 <0>         0.0814
     38 H17        -3.2066   -4.9289    1.9118 H         1 <0>         0.0835
     39 H18        -2.9544   -7.7574   -0.4953 H         1 <0>         0.0827
     40 H19        -3.6752   -7.8578    1.1290 H         1 <0>         0.1105
     41 H20        -4.0046   -6.4470    0.0949 H         1 <0>         0.0834
     42 H21        -1.2665   -6.0799   -0.8822 H         1 <0>         0.4228
@<TRIPOS>BOND
     1    1    2 1
     2    1   22 1
     3    1   23 1
     4    1   24 1
     5    2    3 1
     6    2   25 1
     7    2   26 1
     8    3    4 1
     9    4    9 ar
    10    4    5 ar
    11    5    6 ar
    12    5   27 1
    13    6    7 ar
    14    6   17 1
    15    7    8 ar
    16    7   16 1
    17    8    9 ar
    18    8   15 1
    19    9   10 1
    20   10   11 1
    21   11   12 1
    22   11   28 1
    23   11   29 1
    24   12   13 2
    25   12   14 am
    26   14   30 1
    27   14   31 1
    28   17   18 1
    29   17   32 1
    30   17   33 1
    31   18   19 1
    32   18   34 1
    33   18   42 1
    34   19   20 1
    35   19   21 1
    36   19   35 1
    37   20   36 1
    38   20   37 1
    39   20   38 1
    40   21   39 1
    41   21   40 1
    42   21   41 1
@<TRIPOS>MOLECULE
ZINC44714205
   66    69     0     0     0
SMALL
USER_CHARGES

@<TRIPOS>ATOM
      1 C1          1.3309    3.9758   -3.0896 C.3       1 <0>        -0.1035
      2 C2          2.6606    3.4204   -2.6489 C.2       1 <0>         0.1127
      3 C3          2.9920    2.1108   -2.5712 C.2       1 <0>        -0.2576
      4 C4          4.3136    2.0272   -2.1208 C.2       1 <0>         0.0836
      5 N1          4.7596    3.2431   -1.9348 N.2       1 <0>        -0.2837
      6 N2          3.7362    4.1402   -2.2665 N.pl3     1 <0>        -0.4693
      7 H1          3.7903    5.1079   -2.2264 H         1 <0>         0.4431
      8 C5          5.0895    0.7563   -1.8890 C.3       1 <0>        -0.0864
      9 C6          2.0955    0.9477   -2.9096 C.3       1 <0>         0.2265
     10 H2          1.2350    1.3049   -3.4755 H         1 <0>         0.0942
     11 C7          1.6159    0.2810   -1.6187 C.3       1 <0>        -0.1629
     12 N3          2.8396   -0.0246   -3.7141 N.am      1 <0>        -0.7237
     13 C8          2.1806   -0.8589   -4.5424 C.2       1 <0>         0.5135
     14 O1          0.9716   -0.8048   -4.6218 O.2       1 <0>        -0.5097
     15 C9          2.9460   -1.8590   -5.3700 C.3       1 <0>        -0.1157
     16 H3          3.8204   -2.2127   -4.8237 H         1 <0>         0.1194
     17 C10         2.0361   -3.0467   -5.7559 C.3       1 <0>         0.1214
     18 N4          1.5207   -2.7016   -7.1018 N.am      1 <0>        -0.6133
     19 C11         2.6788   -2.0862   -7.7933 C.3       1 <0>         0.0881
     20 C12         3.3687   -1.2336   -6.7099 C.3       1 <0>        -0.0727
     21 C13         4.8844   -1.3015   -6.8701 C.3       1 <0>        -0.1356
     22 C14         5.2856   -0.6215   -8.1821 C.3       1 <0>        -0.0114
     23 N5          4.8370    0.7761   -8.1683 N.4       1 <0>        -0.5052
     24 C15         3.3713    0.8308   -8.1079 C.3       1 <0>        -0.0101
     25 C16         2.8892    0.2124   -6.7927 C.3       1 <0>        -0.1493
     26 C17         0.2797   -2.9023   -7.5876 C.2       1 <0>         0.5888
     27 O2         -0.6021   -3.3065   -6.8546 O.2       1 <0>        -0.4966
     28 C18        -0.0089   -2.6314   -9.0096 C.ar      1 <0>        -0.1153
     29 C19         1.0316   -2.5987   -9.9415 C.ar      1 <0>        -0.0850
     30 C20         0.7583   -2.3454  -11.2684 C.ar      1 <0>        -0.0592
     31 C21        -0.5510   -2.1221  -11.6800 C.ar      1 <0>         0.1457
     32 C22        -1.5891   -2.1539  -10.7554 C.ar      1 <0>        -0.0526
     33 C23        -1.3241   -2.4128   -9.4279 C.ar      1 <0>        -0.0313
     34 Cl1        -3.2216   -1.8739  -11.2750 Cl        1 <0>        -0.0195
     35 O3         -0.8164   -1.8721  -12.9877 O.3       1 <0>        -0.3194
     36 C24        -1.0903   -2.9999  -13.8213 C.3       1 <0>         0.0330
     37 Cl2         2.0503   -2.3045  -12.4272 Cl        1 <0>        -0.0347
     38 H4          1.3417    4.1316   -4.1684 H         1 <0>         0.0828
     39 H5          0.5397    3.2716   -2.8322 H         1 <0>         0.0913
     40 H6          1.1493    4.9258   -2.5871 H         1 <0>         0.0792
     41 H7          5.6094    0.4758   -2.8051 H         1 <0>         0.0730
     42 H8          5.8165    0.9145   -1.0925 H         1 <0>         0.0834
     43 H9          4.4037   -0.0408   -1.6019 H         1 <0>         0.0829
     44 H10         2.4763   -0.0762   -1.0529 H         1 <0>         0.0604
     45 H11         1.0622    1.0044   -1.0202 H         1 <0>         0.0686
     46 H12         0.9674   -0.5602   -1.8635 H         1 <0>         0.0652
     47 H13         3.8065   -0.0678   -3.6507 H         1 <0>         0.3968
     48 H14         2.6133   -3.9705   -5.7953 H         1 <0>         0.0908
     49 H15         1.2137   -3.1414   -5.0468 H         1 <0>         0.1066
     50 H16         3.3573   -2.8571   -8.1587 H         1 <0>         0.0927
     51 H17         2.3399   -1.4557   -8.6154 H         1 <0>         0.0913
     52 H18         5.3619   -0.7900   -6.0343 H         1 <0>         0.0993
     53 H19         5.2020   -2.3441   -6.8886 H         1 <0>         0.1244
     54 H20         6.3697   -0.6538   -8.2911 H         1 <0>         0.1417
     55 H21         4.8211   -1.1437   -9.0185 H         1 <0>         0.1324
     56 H22         5.2232    1.2440   -7.3621 H         1 <0>         0.4287
     57 H23         3.0442    1.8692   -8.1623 H         1 <0>         0.1389
     58 H24         2.9524    0.2740   -8.9461 H         1 <0>         0.1318
     59 H25         1.8001    0.2371   -6.7567 H         1 <0>         0.1230
     60 H26         3.2945    0.7787   -5.9542 H         1 <0>         0.1009
     61 H27         2.0489   -2.7713   -9.6224 H         1 <0>         0.1524
     62 H28        -2.1314   -2.4421   -8.7111 H         1 <0>         0.1607
     63 H29        -0.2307   -3.6701  -13.8199 H         1 <0>         0.0544
     64 H30        -1.9641   -3.5290  -13.4411 H         1 <0>         0.0563
     65 H31        -1.2850   -2.6610  -14.8388 H         1 <0>         0.1090
     66 H32         5.1553    1.2384   -9.0068 H         1 <0>         0.4344
@<TRIPOS>BOND
     1    1    2 1
     2    1   38 1
     3    1   39 1
     4    1   40 1
     5    2    6 1
     6    2    3 2
     7    3    4 1
     8    3    9 1
     9    4    5 2
    10    4    8 1
    11    5    6 1
    12    6    7 1
    13    8   41 1
    14    8   42 1
    15    8   43 1
    16    9   10 1
    17    9   11 1
    18    9   12 1
    19   11   44 1
    20   11   45 1
    21   11   46 1
    22   12   13 am
    23   12   47 1
    24   13   14 2
    25   13   15 1
    26   15   16 1
    27   15   20 1
    28   15   17 1
    29   17   18 1
    30   17   48 1
    31   17   49 1
    32   18   19 1
    33   18   26 am
    34   19   20 1
    35   19   50 1
    36   19   51 1
    37   20   25 1
    38   20   21 1
    39   21   22 1
    40   21   52 1
    41   21   53 1
    42   22   23 1
    43   22   54 1
    44   22   55 1
    45   23   24 1
    46   23   56 1
    47   23   66 1
    48   24   25 1
    49   24   57 1
    50   24   58 1
    51   25   59 1
    52   25   60 1
    53   26   27 2
    54   26   28 1
    55   28   33 ar
    56   28   29 ar
    57   29   30 ar
    58   29   61 1
    59   30   31 ar
    60   30   37 1
    61   31   32 ar
    62   31   35 1
    63   32   33 ar
    64   32   34 1
    65   33   62 1
    66   35   36 1
    67   36   63 1
    68   36   64 1
    69   36   65 1
@<TRIPOS>MOLECULE
ZINC60375751
   63    64     0     0     0
SMALL
USER_CHARGES

@<TRIPOS>ATOM
      1 C1         -1.4864    0.9706   -0.7382 C.3       1 <0>        -0.1178
      2 C2         -0.7381   -0.3312   -0.6106 C.ar      1 <0>        -0.0962
      3 C3         -0.6040   -1.1593   -1.7096 C.ar      1 <0>        -0.1045
      4 C4          0.0793   -2.3531   -1.6005 C.ar      1 <0>        -0.1048
      5 C5          0.6385   -2.7279   -0.3774 C.ar      1 <0>        -0.1145
      6 C6          0.5036   -1.8923    0.7310 C.ar      1 <0>        -0.0762
      7 C7         -0.1803   -0.6926    0.6096 C.ar      1 <0>         0.1572
      8 N1         -0.3140    0.1521    1.7177 N.am      1 <0>        -0.6788
      9 C8         -0.2882   -0.3615    2.9635 C.2       1 <0>         0.7039
     10 O1         -0.0573   -1.5437    3.1291 O.2       1 <0>        -0.5617
     11 N2         -0.5183    0.4354    4.0258 N.am      1 <0>        -0.7388
     12 C9         -0.4902   -0.1229    5.3800 C.3       1 <0>         0.1766
     13 C10        -0.7765    0.9683    6.3792 C.ar      1 <0>        -0.1120
     14 C11         0.2647    1.7115    6.9071 C.ar      1 <0>        -0.0615
     15 C12         0.0105    2.7152    7.8245 C.ar      1 <0>        -0.1245
     16 C13        -1.2845    2.9813    8.2195 C.ar      1 <0>        -0.0766
     17 C14        -2.3390    2.2355    7.6910 C.ar      1 <0>        -0.1487
     18 C15        -2.0762    1.2279    6.7614 C.ar      1 <0>        -0.0338
     19 C16        -3.7291    2.5149    8.1101 C.2       1 <0>         0.5710
     20 O2         -4.6456    1.8637    7.6481 O.2       1 <0>        -0.5186
     21 N3         -3.9800    3.4915    9.0043 N.am      1 <0>        -0.7326
     22 C17        -5.3574    3.7683    9.4195 C.3       1 <0>         0.0951
     23 C18        -5.3639    4.9143   10.4332 C.3       1 <0>        -0.0235
     24 N4         -6.7451    5.1919   10.8495 N.4       1 <0>        -0.3828
     25 C19        -7.2814    4.0308   11.5722 C.3       1 <0>        -0.0563
     26 C20        -6.7643    6.3680   11.7295 C.3       1 <0>        -0.0469
     27 C21         1.3709   -4.0068   -0.2574 C.2       1 <0>         0.5599
     28 O3          2.4150   -4.0533    0.3632 O.2       1 <0>        -0.5285
     29 N5          0.8808   -5.1209   -0.8362 N.am      1 <0>        -0.6164
     30 C22         1.6542   -6.3646   -0.8027 C.3       1 <0>         0.0850
     31 C23        -0.4254   -5.0881   -1.4989 C.3       1 <0>         0.0607
     32 H1         -0.7936    1.7611   -1.0269 H         1 <0>         0.0753
     33 H2         -2.2614    0.8713   -1.4981 H         1 <0>         0.0763
     34 H3         -1.9453    1.2211    0.2183 H         1 <0>         0.0626
     35 H4         -1.0359   -0.8711   -2.6566 H         1 <0>         0.1352
     36 H5          0.1813   -2.9976   -2.4611 H         1 <0>         0.1335
     37 H6          0.9341   -2.1769    1.6797 H         1 <0>         0.1637
     38 H7         -0.4252    1.1071    1.5890 H         1 <0>         0.4085
     39 H8         -0.7025    1.3785    3.8938 H         1 <0>         0.3985
     40 H9         -1.2466   -0.9029    5.4672 H         1 <0>         0.0833
     41 H10         0.4940   -0.5475    5.5776 H         1 <0>         0.0854
     42 H11         1.2802    1.5067    6.6018 H         1 <0>         0.1370
     43 H12         0.8276    3.2916    8.2327 H         1 <0>         0.1372
     44 H13        -1.4815    3.7647    8.9363 H         1 <0>         0.1248
     45 H14        -2.8882    0.6501    6.3453 H         1 <0>         0.1410
     46 H15        -3.2486    4.0112    9.3730 H         1 <0>         0.4076
     47 H16        -5.9497    4.0499    8.5489 H         1 <0>         0.0911
     48 H17        -5.7852    2.8762    9.8769 H         1 <0>         0.0918
     49 H18        -4.7716    4.6327   11.3038 H         1 <0>         0.1380
     50 H19        -4.9361    5.8064    9.9758 H         1 <0>         0.1389
     51 H20        -6.6687    3.8360   12.4524 H         1 <0>         0.1251
     52 H21        -8.3062    4.2367   11.8811 H         1 <0>         0.1293
     53 H22        -7.2672    3.1581   10.9192 H         1 <0>         0.1264
     54 H23        -6.3664    7.2295   11.1933 H         1 <0>         0.1251
     55 H24        -7.7891    6.5739   12.0385 H         1 <0>         0.1285
     56 H25        -6.1516    6.1732   12.6098 H         1 <0>         0.1239
     57 H26         1.3909   -6.9323    0.0898 H         1 <0>         0.0572
     58 H27         1.4286   -6.9568   -1.6896 H         1 <0>         0.0728
     59 H28         2.7185   -6.1302   -0.7835 H         1 <0>         0.0778
     60 H29        -0.8561   -4.0914   -1.4038 H         1 <0>         0.0918
     61 H30        -0.3036   -5.3321   -2.5542 H         1 <0>         0.0652
     62 H31        -1.0882   -5.8165   -1.0316 H         1 <0>         0.0635
     63 H32        -7.3122    5.3722   10.0347 H         1 <0>         0.4305
@<TRIPOS>BOND
     1    1    2 1
     2    1   32 1
     3    1   33 1
     4    1   34 1
     5    2    7 ar
     6    2    3 ar
     7    3    4 ar
     8    3   35 1
     9    4    5 ar
    10    4   36 1
    11    5    6 ar
    12    5   27 1
    13    6    7 ar
    14    6   37 1
    15    7    8 1
    16    8    9 am
    17    8   38 1
    18    9   10 2
    19    9   11 am
    20   11   12 1
    21   11   39 1
    22   12   13 1
    23   12   40 1
    24   12   41 1
    25   13   18 ar
    26   13   14 ar
    27   14   15 ar
    28   14   42 1
    29   15   16 ar
    30   15   43 1
    31   16   17 ar
    32   16   44 1
    33   17   18 ar
    34   17   19 1
    35   18   45 1
    36   19   20 2
    37   19   21 am
    38   21   22 1
    39   21   46 1
    40   22   23 1
    41   22   47 1
    42   22   48 1
    43   23   24 1
    44   23   49 1
    45   23   50 1
    46   24   25 1
    47   24   26 1
    48   24   63 1
    49   25   51 1
    50   25   52 1
    51   25   53 1
    52   26   54 1
    53   26   55 1
    54   26   56 1
    55   27   28 2
    56   27   29 am
    57   29   30 1
    58   29   31 1
    59   30   57 1
    60   30   58 1
    61   30   59 1
    62   31   60 1
    63   31   61 1
    64   31   62 1
@<TRIPOS>MOLECULE
ZINC04517555
   58    60     0     0     0
SMALL
USER_CHARGES
6,7-dichloro-3-[3-[3-(diethylaminomethyl)-4-hydroxy-phenyl]amino-2-hydroxy-propyl]-quinazolin-4-one
@<TRIPOS>ATOM
      1 C1          0.0856    4.6355    7.1320 C.3       1 <0>        -0.1848
      2 C2          1.5396    4.1596    7.1481 C.3       1 <0>        -0.0113
      3 C3          1.1581    3.1184    9.3005 C.3       1 <0>        -0.0122
      4 C4          2.1582    3.9825   10.0712 C.3       1 <0>        -0.1874
      5 C5          0.9148    1.8235    7.2691 C.3       1 <0>         0.0500
      6 C6          1.6699    1.3886    6.0395 C.ar      1 <0>        -0.1274
      7 C7          1.2067    1.7368    4.7856 C.ar      1 <0>        -0.1584
      8 C8          1.9023    1.3356    3.6530 C.ar      1 <0>         0.2209
      9 C9          3.0601    0.5796    3.7816 C.ar      1 <0>        -0.1547
     10 C10         3.5246    0.2368    5.0361 C.ar      1 <0>        -0.0858
     11 C11         2.8293    0.6384    6.1672 C.ar      1 <0>         0.0587
     12 O1          3.2846    0.2960    7.4022 O.3       1 <0>        -0.5061
     13 N1          1.4338    1.6880    2.3823 N.pl3     1 <0>        -0.7321
     14 C12         2.1681    1.2645    1.1875 C.3       1 <0>         0.0894
     15 C13         1.4487    1.7772   -0.0617 C.3       1 <0>         0.0815
     16 H1          1.4001    2.8658   -0.0319 H         1 <0>         0.1124
     17 C14         2.2155    1.3349   -1.3096 C.3       1 <0>         0.0634
     18 N2          1.5953    1.9247   -2.4986 N.am      1 <0>        -0.5430
     19 C15         2.0151    3.1372   -2.9455 C.2       1 <0>         0.3802
     20 N3          1.5161    3.7250   -3.9900 N.2       1 <0>        -0.5129
     21 C16         0.5232    3.1567   -4.7195 C.ar      1 <0>         0.1658
     22 C17        -0.0127    3.7881   -5.8432 C.ar      1 <0>        -0.0879
     23 C18        -1.0205    3.1749   -6.5551 C.ar      1 <0>         0.0122
     24 C19        -1.5108    1.9316   -6.1681 C.ar      1 <0>        -0.0526
     25 C20        -0.9964    1.2896   -5.0625 C.ar      1 <0>        -0.0175
     26 C21         0.0230    1.8944   -4.3294 C.ar      1 <0>        -0.1845
     27 C22         0.6132    1.2543   -3.1449 C.2       1 <0>         0.5605
     28 O2          0.2309    0.1651   -2.7583 O.2       1 <0>        -0.4961
     29 Cl1        -2.7810    1.1835   -7.0849 Cl        1 <0>        -0.0287
     30 Cl2        -1.6859    3.9624   -7.9518 Cl        1 <0>        -0.0232
     31 O3          0.1242    1.2423   -0.1020 O.3       1 <0>        -0.5467
     32 H2         -0.2173    4.9123    8.1418 H         1 <0>         0.0816
     33 H3         -0.0064    5.5005    6.4752 H         1 <0>         0.1044
     34 H4         -0.5554    3.8328    6.7676 H         1 <0>         0.0777
     35 H5          2.1677    4.9258    7.6026 H         1 <0>         0.1270
     36 H6          1.8729    3.9755    6.1267 H         1 <0>         0.1260
     37 H7          0.1894    3.6177    9.2765 H         1 <0>         0.1320
     38 H8          1.0566    2.1520    9.7943 H         1 <0>         0.1276
     39 H9          1.8500    4.0520   11.1144 H         1 <0>         0.1052
     40 H10         3.1484    3.5305   10.0143 H         1 <0>         0.0799
     41 H11         2.1887    4.9805    9.6340 H         1 <0>         0.0787
     42 H12        -0.0793    2.1667    6.9825 H         1 <0>         0.1357
     43 H13         0.8247    0.9825    7.9565 H         1 <0>         0.1333
     44 H14         0.3036    2.3207    4.6863 H         1 <0>         0.1335
     45 H15         3.5994    0.2633    2.9009 H         1 <0>         0.1356
     46 H16         4.4272   -0.3477    5.1364 H         1 <0>         0.1403
     47 H17         3.0004   -0.5800    7.6972 H         1 <0>         0.3982
     48 H18         0.6229    2.2127    2.2927 H         1 <0>         0.4099
     49 H19         2.2166    0.1759    1.1577 H         1 <0>         0.0740
     50 H20         3.1783    1.6725    1.2182 H         1 <0>         0.0799
     51 H21         3.2509    1.6678   -1.2368 H         1 <0>         0.1123
     52 H22         2.1880    0.2480   -1.3867 H         1 <0>         0.1102
     53 H23         2.8041    3.6378   -2.4039 H         1 <0>         0.2054
     54 H24         0.3600    4.7534   -6.1524 H         1 <0>         0.1624
     55 H25        -1.3807    0.3248   -4.7661 H         1 <0>         0.1590
     56 H26         0.0909    0.2762   -0.1298 H         1 <0>         0.3868
     57 N4          1.6677    2.9110    7.9287 N.4       1 <0>        -0.3917
     58 H27         2.6591    2.6484    7.9773 H         1 <0>         0.4331
@<TRIPOS>BOND
     1    1    2 1
     2    1   32 1
     3    1   33 1
     4    1   34 1
     5    2   35 1
     6    2   36 1
     7    2   57 1
     8    3    4 1
     9    3   37 1
    10    3   38 1
    11    3   57 1
    12    4   39 1
    13    4   40 1
    14    4   41 1
    15    5    6 1
    16    5   42 1
    17    5   43 1
    18    5   57 1
    19    6   11 ar
    20    6    7 ar
    21    7    8 ar
    22    7   44 1
    23    8    9 ar
    24    8   13 1
    25    9   10 ar
    26    9   45 1
    27   10   11 ar
    28   10   46 1
    29   11   12 1
    30   12   47 1
    31   13   14 1
    32   13   48 1
    33   14   15 1
    34   14   49 1
    35   14   50 1
    36   15   16 1
    37   15   17 1
    38   15   31 1
    39   17   18 1
    40   17   51 1
    41   17   52 1
    42   18   27 am
    43   18   19 1
    44   19   20 2
    45   19   53 1
    46   20   21 1
    47   21   26 ar
    48   21   22 ar
    49   22   23 ar
    50   22   54 1
    51   23   24 ar
    52   23   30 1
    53   24   25 ar
    54   24   29 1
    55   25   26 ar
    56   25   55 1
    57   26   27 1
    58   27   28 2
    59   31   56 1
    60   57   58 1
@<TRIPOS>MOLECULE
ZINC09705668
   61    63     0     0     0
SMALL
USER_CHARGES
N-(3-diethylaminopropyl)-N'-[2-[(3-fluorophenyl)carbamoyl]benzofuran-3-yl]oxamide
@<TRIPOS>ATOM
      1 C1          7.6461   -3.1205   -4.5706 C.3       1 <0>        -0.1901
      2 C2          6.9673   -1.8061   -4.1802 C.3       1 <0>        -0.0101
      3 C3          8.6492   -1.2663   -2.5241 C.3       1 <0>        -0.0116
      4 C4          8.9334   -1.3127   -1.0215 C.3       1 <0>        -0.1907
      5 C5          6.3985   -0.4051   -2.2890 C.3       1 <0>        -0.0061
      6 C6          4.9591   -0.8818   -2.0840 C.3       1 <0>        -0.1651
      7 C7          4.0766    0.3091   -1.7048 C.3       1 <0>         0.1221
      8 N1          2.6985   -0.1472   -1.5085 N.am      1 <0>        -0.7063
      9 C8          1.7386    0.7350   -1.1666 C.2       1 <0>         0.5179
     10 O1          2.0161    1.9075   -1.0215 O.2       1 <0>        -0.4936
     11 C9          0.3337    0.2698   -0.9665 C.2       1 <0>         0.5096
     12 O2          0.0563   -0.9028   -1.1117 O.2       1 <0>        -0.4882
     13 N2         -0.6271    1.1530   -0.6301 N.am      1 <0>        -0.6055
     14 C10        -1.9510    0.7426   -0.5533 C.2       1 <0>         0.1566
     15 C11        -2.4480   -0.5619   -0.0987 C.ar      1 <0>        -0.1415
     16 C12        -1.8356   -1.7210    0.3791 C.ar      1 <0>        -0.0319
     17 C13        -2.6023   -2.7941    0.7382 C.ar      1 <0>        -0.1428
     18 C14        -3.9851   -2.7354    0.6349 C.ar      1 <0>        -0.0661
     19 C15        -4.6086   -1.5976    0.1703 C.ar      1 <0>        -0.1162
     20 C16        -3.8484   -0.4938   -0.2003 C.ar      1 <0>         0.0904
     21 O3         -4.1689    0.7253   -0.6772 O.3       1 <0>        -0.1723
     22 C17        -3.0606    1.4687   -0.8914 C.2       1 <0>        -0.0568
     23 C18        -3.0490    2.8372   -1.4054 C.2       1 <0>         0.6054
     24 O4         -1.9904    3.3854   -1.6535 O.2       1 <0>        -0.4989
     25 N3         -4.2099    3.4921   -1.6046 N.am      1 <0>        -0.6556
     26 C19        -4.2044    4.7639   -2.1854 C.ar      1 <0>         0.1661
     27 C20        -5.2302    5.1419   -3.0429 C.ar      1 <0>        -0.1481
     28 C21        -5.2232    6.3987   -3.6152 C.ar      1 <0>        -0.0690
     29 C22        -4.1969    7.2821   -3.3358 C.ar      1 <0>        -0.1624
     30 C23        -3.1723    6.9096   -2.4817 C.ar      1 <0>         0.1190
     31 C24        -3.1768    5.6535   -1.9018 C.ar      1 <0>        -0.1566
     32 F1         -2.1711    7.7750   -2.2103 F         1 <0>        -0.1337
     33 H1          7.4565   -3.3285   -5.6236 H         1 <0>         0.1068
     34 H2          8.7201   -3.0382   -4.4042 H         1 <0>         0.0807
     35 H3          7.2452   -3.9312   -3.9622 H         1 <0>         0.0803
     36 H4          5.8932   -1.8884   -4.3466 H         1 <0>         0.1285
     37 H5          7.3682   -0.9954   -4.7886 H         1 <0>         0.1321
     38 H6          9.2455   -2.0254   -3.0303 H         1 <0>         0.1321
     39 H7          8.9088   -0.2815   -2.9127 H         1 <0>         0.1318
     40 H8          8.7381   -2.3171   -0.6457 H         1 <0>         0.0809
     41 H9          9.9766   -1.0536   -0.8408 H         1 <0>         0.1072
     42 H10         8.2878   -0.6006   -0.5074 H         1 <0>         0.0796
     43 H11         6.4144    0.3947   -3.0294 H         1 <0>         0.1371
     44 H12         6.7963   -0.0340   -1.3445 H         1 <0>         0.1365
     45 H13         4.9321   -1.6229   -1.2852 H         1 <0>         0.0986
     46 H14         4.5894   -1.3287   -3.0069 H         1 <0>         0.0959
     47 H15         4.1036    1.0503   -2.5036 H         1 <0>         0.0860
     48 H16         4.4463    0.7560   -0.7819 H         1 <0>         0.0867
     49 H17         2.4767   -1.0844   -1.6245 H         1 <0>         0.4165
     50 H18        -0.3936    2.0754   -0.4417 H         1 <0>         0.4360
     51 H19        -0.7599   -1.7716    0.4610 H         1 <0>         0.1378
     52 H20        -2.1291   -3.6933    1.1042 H         1 <0>         0.1347
     53 H21        -4.5789   -3.5908    0.9214 H         1 <0>         0.1428
     54 H22        -5.6853   -1.5635    0.0938 H         1 <0>         0.1418
     55 H23        -5.0494    3.0811   -1.3451 H         1 <0>         0.4229
     56 H24        -6.0329    4.4533   -3.2614 H         1 <0>         0.1364
     57 H25        -6.0208    6.6921   -4.2816 H         1 <0>         0.1419
     58 H26        -4.1944    8.2646   -3.7843 H         1 <0>         0.1402
     59 H27        -2.3804    5.3641   -1.2323 H         1 <0>         0.1508
     60 N4          7.2155   -1.5490   -2.7459 N.4       1 <0>        -0.3967
     61 H28         6.9527   -2.3827   -2.2073 H         1 <0>         0.4263
@<TRIPOS>BOND
     1    1    2 1
     2    1   33 1
     3    1   34 1
     4    1   35 1
     5    2   36 1
     6    2   37 1
     7    2   60 1
     8    3    4 1
     9    3   38 1
    10    3   39 1
    11    3   60 1
    12    4   40 1
    13    4   41 1
    14    4   42 1
    15    5    6 1
    16    5   43 1
    17    5   44 1
    18    5   60 1
    19    6    7 1
    20    6   45 1
    21    6   46 1
    22    7    8 1
    23    7   47 1
    24    7   48 1
    25    8    9 am
    26    8   49 1
    27    9   10 2
    28    9   11 1
    29   11   12 2
    30   11   13 am
    31   13   14 1
    32   13   50 1
    33   14   22 2
    34   14   15 1
    35   15   20 ar
    36   15   16 ar
    37   16   17 ar
    38   16   51 1
    39   17   18 ar
    40   17   52 1
    41   18   19 ar
    42   18   53 1
    43   19   20 ar
    44   19   54 1
    45   20   21 1
    46   21   22 1
    47   22   23 1
    48   23   24 2
    49   23   25 am
    50   25   26 1
    51   25   55 1
    52   26   31 ar
    53   26   27 ar
    54   27   28 ar
    55   27   56 1
    56   28   29 ar
    57   28   57 1
    58   29   30 ar
    59   29   58 1
    60   30   31 ar
    61   30   32 1
    62   31   59 1
    63   60   61 1
@<TRIPOS>MOLECULE
ZINC26805531
   55    57     0     0     0
SMALL
USER_CHARGES
2-chloro-N-[(Z)-2-(2,4-dichlorophenyl)-1-(2-piperazin-1-ylethylcarbamoyl)vinyl]benzamide
@<TRIPOS>ATOM
      1 C1          3.0776    6.6225   -1.1273 C.ar      1 <0>        -0.1206
      2 C2          3.7195    6.9010   -2.3216 C.ar      1 <0>        -0.0746
      3 C3          3.9834    5.8881   -3.2251 C.ar      1 <0>        -0.1180
      4 C4          3.6077    4.5895   -2.9402 C.ar      1 <0>         0.0165
      5 C5          2.9600    4.3020   -1.7362 C.ar      1 <0>        -0.1346
      6 C6          2.6921    5.3318   -0.8320 C.ar      1 <0>        -0.0764
      7 C7          2.5549    2.9160   -1.4239 C.2       1 <0>         0.5600
      8 O1          2.8848    2.0059   -2.1595 O.2       1 <0>        -0.4772
      9 N1          1.8197    2.6605   -0.3236 N.am      1 <0>        -0.6841
     10 C8          1.3450    1.3670   -0.0847 C.2       1 <0>         0.1069
     11 C9          0.0188    1.1525    0.0797 C.2       1 <0>        -0.0847
     12 C10        -0.9214    2.2815    0.0209 C.ar      1 <0>        -0.0557
     13 C11        -0.6370    3.3923   -0.7809 C.ar      1 <0>        -0.0863
     14 C12        -1.5228    4.4467   -0.8311 C.ar      1 <0>        -0.1030
     15 C13        -2.6933    4.4096   -0.0901 C.ar      1 <0>        -0.0138
     16 C14        -2.9829    3.3140    0.7057 C.ar      1 <0>        -0.1014
     17 C15        -2.1084    2.2479    0.7624 C.ar      1 <0>        -0.0077
     18 Cl1        -2.4762    0.8719    1.7549 Cl        1 <0>        -0.0497
     19 Cl2        -3.8025    5.7431   -0.1604 Cl        1 <0>        -0.0438
     20 C16         2.2860    0.2406   -0.0121 C.2       1 <0>         0.5564
     21 O2          3.4782    0.4334   -0.1599 O.2       1 <0>        -0.5040
     22 N2          1.8284   -1.0060    0.2181 N.am      1 <0>        -0.7406
     23 C17         2.7666   -2.1289    0.2904 C.3       1 <0>         0.1201
     24 C18         1.9944   -3.4222    0.5590 C.3       1 <0>         0.0425
     25 N3          2.9351   -4.5481    0.6315 N.3       1 <0>        -0.5338
     26 C19         4.0932   -4.2135    1.4721 C.3       1 <0>         0.0097
     27 C20         5.0846   -5.3795    1.4575 C.3       1 <0>         0.0025
     28 N4          4.4161   -6.5936    1.9461 N.4       1 <0>        -0.5383
     29 C21         3.2580   -6.9282    1.1055 C.3       1 <0>         0.0009
     30 C22         2.2666   -5.7622    1.1201 C.3       1 <0>         0.0227
     31 Cl3         3.9391    3.3186   -4.0755 Cl        1 <0>        -0.0277
     32 H1          2.8741    7.4189   -0.4268 H         1 <0>         0.1391
     33 H2          4.0153    7.9145   -2.5491 H         1 <0>         0.1409
     34 H3          4.4839    6.1126   -4.1554 H         1 <0>         0.1433
     35 H4          2.1877    5.1172    0.0986 H         1 <0>         0.1319
     36 H5          1.5931    3.4694    0.3865 H         1 <0>         0.4330
     37 H6         -0.3557    0.1336    0.2573 H         1 <0>         0.1459
     38 H7          0.2748    3.4234   -1.3589 H         1 <0>         0.1504
     39 H8         -1.3040    5.3047   -1.4495 H         1 <0>         0.1458
     40 H9         -3.8973    3.2920    1.2801 H         1 <0>         0.1500
     41 H10         0.7506   -1.1804    0.3517 H         1 <0>         0.4194
     42 H11         3.3079   -2.2164   -0.6632 H         1 <0>         0.0819
     43 H12         3.4849   -1.9547    1.1051 H         1 <0>         0.0683
     44 H13         1.4531   -3.3347    1.5126 H         1 <0>         0.0550
     45 H14         1.2761   -3.5964   -0.2557 H         1 <0>         0.1001
     46 H15         4.5825   -3.3100    1.0794 H         1 <0>         0.1293
     47 H16         3.7570   -4.0297    2.5032 H         1 <0>         0.0625
     48 H17         5.4415   -5.5444    0.4302 H         1 <0>         0.1375
     49 H18         5.9388   -5.1427    2.1088 H         1 <0>         0.1385
     50 H19         5.1237   -7.4355    1.9249 H         1 <0>         0.4575
     51 H20         3.5943   -7.1120    0.0744 H         1 <0>         0.1368
     52 H21         2.7687   -7.8318    1.4982 H         1 <0>         0.1386
     53 H22         1.9095   -5.5961    2.1472 H         1 <0>         0.0618
     54 H23         1.4122   -5.9978    0.4685 H         1 <0>         0.1236
     55 H24         4.0697   -6.4316    2.9775 H         1 <0>         0.4470
@<TRIPOS>BOND
     1    1    6 ar
     2    1    2 ar
     3    1   32 1
     4    2    3 ar
     5    2   33 1
     6    3    4 ar
     7    3   34 1
     8    4    5 ar
     9    4   31 1
    10    5    6 ar
    11    5    7 1
    12    6   35 1
    13    7    8 2
    14    7    9 am
    15    9   10 1
    16    9   36 1
    17   10   11 2
    18   10   20 1
    19   11   12 1
    20   11   37 1
    21   12   17 ar
    22   12   13 ar
    23   13   14 ar
    24   13   38 1
    25   14   15 ar
    26   14   39 1
    27   15   16 ar
    28   15   19 1
    29   16   17 ar
    30   16   40 1
    31   17   18 1
    32   20   21 2
    33   20   22 am
    34   22   23 1
    35   22   41 1
    36   23   24 1
    37   23   42 1
    38   23   43 1
    39   24   25 1
    40   24   44 1
    41   24   45 1
    42   25   30 1
    43   25   26 1
    44   26   27 1
    45   26   46 1
    46   26   47 1
    47   27   28 1
    48   27   48 1
    49   27   49 1
    50   28   29 1
    51   28   50 1
    52   28   55 1
    53   29   30 1
    54   29   51 1
    55   29   52 1
    56   30   53 1
    57   30   54 1
@<TRIPOS>MOLECULE
ZINC39676440
   70    74     0     0     0
SMALL
USER_CHARGES

@<TRIPOS>ATOM
      1 C1         -0.6169    0.5582    3.1824 C.3       1 <0>        -0.1509
      2 C2         -0.4462   -0.8035    2.5060 C.3       1 <0>         0.0494
      3 O1         -1.5954   -1.0847    1.7046 O.3       1 <0>        -0.2945
      4 C3         -1.6040   -2.2628    1.0321 C.ar      1 <0>         0.1880
      5 C4         -0.5322   -3.1362    1.1432 C.ar      1 <0>        -0.2168
      6 C5         -0.5421   -4.3346    0.4579 C.ar      1 <0>        -0.0448
      7 C6         -1.6194   -4.6742   -0.3445 C.ar      1 <0>        -0.1636
      8 C7         -2.6926   -3.8188   -0.4661 C.ar      1 <0>        -0.0518
      9 C8         -2.6983   -2.6054    0.2265 C.ar      1 <0>        -0.1808
     10 C9         -3.8467   -1.6873    0.1053 C.2       1 <0>         0.5960
     11 O2         -3.6694   -0.4847    0.1349 O.2       1 <0>        -0.5121
     12 N1         -5.0924   -2.1814   -0.0383 N.am      1 <0>        -0.6227
     13 C10        -5.5179   -3.6001    0.0102 C.3       1 <0>         0.1069
     14 C11        -6.8620   -3.5787    0.7721 C.3       1 <0>        -0.1143
     15 H1         -6.7014   -3.7817    1.8309 H         1 <0>         0.1110
     16 C12        -7.4014   -2.1519    0.5762 C.3       1 <0>        -0.0713
     17 C13        -6.3473   -1.4280   -0.2739 C.3       1 <0>         0.1096
     18 C14        -7.5526   -1.4544    1.9246 C.3       1 <0>        -0.1338
     19 C15        -8.1439   -0.0585    1.7083 C.3       1 <0>        -0.0112
     20 N2         -9.4487   -0.1751    1.0460 N.4       1 <0>        -0.5042
     21 C16        -9.2822   -0.7627   -0.2888 C.3       1 <0>        -0.0079
     22 C17        -8.7388   -2.1882   -0.1571 C.3       1 <0>        -0.1460
     23 C18        -7.8145   -4.5877    0.1841 C.2       1 <0>         0.5194
     24 O3         -7.7582   -4.8584   -0.9968 O.2       1 <0>        -0.5201
     25 N3         -8.7291   -5.1891    0.9705 N.am      1 <0>        -0.7282
     26 C19        -9.6551   -6.1699    0.3989 C.3       1 <0>         0.1203
     27 C20       -10.5812   -6.6971    1.4967 C.3       1 <0>        -0.0505
     28 C21       -11.5338   -7.7060    0.9087 C.2       1 <0>        -0.1772
     29 C22       -11.2765   -9.1344    0.7098 C.ar      1 <0>        -0.0911
     30 C23       -10.1861   -9.9681    0.9650 C.ar      1 <0>        -0.0642
     31 C24       -10.2647  -11.3073    0.6528 C.ar      1 <0>        -0.0549
     32 C25       -11.4207  -11.8294    0.0865 C.ar      1 <0>        -0.0875
     33 C26       -12.5045  -11.0192   -0.1712 C.ar      1 <0>        -0.1126
     34 C27       -12.4469   -9.6643    0.1366 C.ar      1 <0>         0.0994
     35 N4        -13.3402   -8.6241    0.0029 N.pl3     1 <0>        -0.5905
     36 C28       -12.7809   -7.4674    0.4733 C.2       1 <0>         0.0702
     37 Cl1        -8.9117  -12.3482    0.9682 Cl        1 <0>        -0.0662
     38 H2          0.2596    0.7727    3.7937 H         1 <0>         0.0821
     39 H3         -0.7270    1.3307    2.4213 H         1 <0>         0.0687
     40 H4         -1.5051    0.5414    3.8140 H         1 <0>         0.0642
     41 H5          0.4419   -0.7866    1.8744 H         1 <0>         0.0671
     42 H6         -0.3362   -1.5760    3.2671 H         1 <0>         0.0650
     43 H7          0.3113   -2.8783    1.7664 H         1 <0>         0.1378
     44 H8          0.2949   -5.0111    0.5474 H         1 <0>         0.1346
     45 H9         -1.6176   -5.6137   -0.8773 H         1 <0>         0.1343
     46 H10        -3.5300   -4.0875   -1.0929 H         1 <0>         0.1350
     47 H11        -5.6588   -3.9893   -0.9981 H         1 <0>         0.0998
     48 H12        -4.7844   -4.1986    0.5505 H         1 <0>         0.0968
     49 H13        -6.2383   -0.3948    0.0555 H         1 <0>         0.0893
     50 H14        -6.6211   -1.4653   -1.3283 H         1 <0>         0.0838
     51 H15        -8.2175   -2.0363    2.5628 H         1 <0>         0.0958
     52 H16        -6.5758   -1.3661    2.4002 H         1 <0>         0.1184
     53 H17        -8.2685    0.4363    2.6715 H         1 <0>         0.1394
     54 H18        -7.4706    0.5282    1.0834 H         1 <0>         0.1346
     55 H19       -10.0533   -0.7645    1.5984 H         1 <0>         0.4269
     56 H20       -10.2458   -0.7870   -0.7976 H         1 <0>         0.1386
     57 H21        -8.5820   -0.1591   -0.8664 H         1 <0>         0.1334
     58 H22        -8.5983   -2.6172   -1.1492 H         1 <0>         0.1270
     59 H23        -9.4462   -2.7967    0.4063 H         1 <0>         0.0963
     60 H24        -8.7741   -4.9725    1.9149 H         1 <0>         0.4004
     61 H25       -10.2500   -5.6959   -0.3818 H         1 <0>         0.0712
     62 H26        -9.0893   -6.9981   -0.0278 H         1 <0>         0.0751
     63 H27        -9.9863   -7.1711    2.2774 H         1 <0>         0.0793
     64 H28       -11.1470   -5.8689    1.9234 H         1 <0>         0.0749
     65 H29        -9.2857   -9.5650    1.4046 H         1 <0>         0.1313
     66 H30       -11.4700  -12.8810   -0.1546 H         1 <0>         0.1396
     67 H31       -13.3984  -11.4360   -0.6114 H         1 <0>         0.1326
     68 H32       -13.2696   -6.5044    0.4895 H         1 <0>         0.1711
     69 H33       -14.2339   -8.7010   -0.3663 H         1 <0>         0.4213
     70 H34        -9.8636    0.7406    0.9595 H         1 <0>         0.4338
@<TRIPOS>BOND
     1    1    2 1
     2    1   38 1
     3    1   39 1
     4    1   40 1
     5    2    3 1
     6    2   41 1
     7    2   42 1
     8    3    4 1
     9    4    9 ar
    10    4    5 ar
    11    5    6 ar
    12    5   43 1
    13    6    7 ar
    14    6   44 1
    15    7    8 ar
    16    7   45 1
    17    8    9 ar
    18    8   46 1
    19    9   10 1
    20   10   11 2
    21   10   12 am
    22   12   17 1
    23   12   13 1
    24   13   14 1
    25   13   47 1
    26   13   48 1
    27   14   15 1
    28   14   16 1
    29   14   23 1
    30   16   22 1
    31   16   17 1
    32   16   18 1
    33   17   49 1
    34   17   50 1
    35   18   19 1
    36   18   51 1
    37   18   52 1
    38   19   20 1
    39   19   53 1
    40   19   54 1
    41   20   21 1
    42   20   55 1
    43   20   70 1
    44   21   22 1
    45   21   56 1
    46   21   57 1
    47   22   58 1
    48   22   59 1
    49   23   24 2
    50   23   25 am
    51   25   26 1
    52   25   60 1
    53   26   27 1
    54   26   61 1
    55   26   62 1
    56   27   63 1
    57   27   64 1
    58   27   28 1
    59   28   29 1
    60   28   36 2
    61   29   30 ar
    62   29   34 ar
    63   30   31 ar
    64   30   65 1
    65   31   32 ar
    66   31   37 1
    67   32   33 ar
    68   32   66 1
    69   33   34 ar
    70   33   67 1
    71   34   35 1
    72   35   69 1
    73   35   36 1
    74   36   68 1
@<TRIPOS>MOLECULE
ZINC03948383
   53    56     0     0     0
SMALL
USER_CHARGES

@<TRIPOS>ATOM
      1 C1         -0.0168    1.3793   -0.0074 C.ar      1 <0>        -0.0987
      2 C2          1.1666    2.0882   -0.0023 C.ar      1 <0>        -0.0511
      3 C3          2.3848    1.4068   -0.0222 C.ar      1 <0>        -0.1093
      4 C4          2.3965    0.0111   -0.0472 C.ar      1 <0>        -0.0757
      5 C5          1.2058   -0.6855   -0.0521 C.ar      1 <0>        -0.1085
      6 C6          0.0019   -0.0040   -0.0323 C.ar      1 <0>        -0.1176
      7 C7         -1.2949   -0.7718   -0.0373 C.3       1 <0>         0.1638
      8 N1         -1.7244   -0.9958   -1.4199 N.pl3     1 <0>        -0.5823
      9 C8         -2.5817   -0.1054   -2.2275 C.3       1 <0>         0.0555
     10 C9         -2.6453   -0.8216   -3.5949 C.3       1 <0>         0.0359
     11 O1         -1.5528   -1.7588   -3.5182 O.3       1 <0>        -0.2739
     12 C10        -1.4000   -2.0724   -2.2122 C.cat     1 <0>         0.6679
     13 N2         -1.0043   -3.2297   -1.7687 N.pl3     1 <0>        -0.7083
     14 C11         3.6566    2.1598   -0.0173 C.2       1 <0>         0.5534
     15 O2          3.6433    3.3751    0.0041 O.2       1 <0>        -0.5030
     16 N3          4.8311    1.4990   -0.0366 N.am      1 <0>        -0.6529
     17 C12         6.0257    2.2054   -0.1487 C.ar      1 <0>         0.2194
     18 C13         6.0416    3.4582   -0.7475 C.ar      1 <0>        -0.1286
     19 C14         7.2265    4.1572   -0.8580 C.ar      1 <0>        -0.0509
     20 C15         8.4080    3.6164   -0.3735 C.ar      1 <0>        -0.0595
     21 C16         8.4110    2.3737    0.2241 C.ar      1 <0>        -0.0532
     22 C17         7.2179    1.6574    0.3479 C.ar      1 <0>        -0.1689
     23 C18         7.2126    0.3307    0.9918 C.2       1 <0>         0.5715
     24 O3          6.1924   -0.3305    1.0135 O.2       1 <0>        -0.4833
     25 N4          8.3387   -0.1490    1.5561 N.am      1 <0>        -0.6509
     26 C19         8.3089   -1.3541    2.2554 C.ar      1 <0>         0.3605
     27 C20         9.4476   -1.7909    2.9234 C.ar      1 <0>        -0.1873
     28 C21         9.4047   -2.9887    3.6143 C.ar      1 <0>        -0.0344
     29 C22         8.2186   -3.7121    3.6135 C.ar      1 <0>        -0.1177
     30 C23         7.1256   -3.2175    2.9278 C.ar      1 <0>         0.1464
     31 N5          7.1955   -2.0691    2.2820 N.ar      1 <0>        -0.4633
     32 Cl1         8.1110   -5.2216    4.4641 Cl        1 <0>        -0.0477
     33 Cl2         9.8903    4.5080   -0.5205 Cl        1 <0>        -0.0499
     34 H1         -0.9600    1.9051    0.0125 H         1 <0>         0.1387
     35 H2          1.1506    3.1679    0.0168 H         1 <0>         0.1489
     36 H3          3.3356   -0.5220   -0.0630 H         1 <0>         0.1396
     37 H4          1.2135   -1.7653   -0.0718 H         1 <0>         0.1277
     38 H5         -1.1507   -1.7317    0.4585 H         1 <0>         0.1086
     39 H6         -2.0575   -0.2004    0.4920 H         1 <0>         0.1302
     40 H7         -3.5760   -0.0262   -1.7880 H         1 <0>         0.1284
     41 H8         -2.1255    0.8792   -2.3296 H         1 <0>         0.1224
     42 H9         -3.5945   -1.3443   -3.7129 H         1 <0>         0.1229
     43 H10        -2.4898   -0.1135   -4.4089 H         1 <0>         0.1537
     44 H11        -0.9203   -3.3804   -0.8141 H         1 <0>         0.4503
     45 H12         4.8442    0.5312    0.0277 H         1 <0>         0.4272
     46 H13         5.1257    3.8860   -1.1276 H         1 <0>         0.1636
     47 H14         7.2337    5.1310   -1.3249 H         1 <0>         0.1486
     48 H15         9.3336    1.9565    0.5997 H         1 <0>         0.1420
     49 H16         9.1698    0.3446    1.4754 H         1 <0>         0.4227
     50 H17        10.3534   -1.2031    2.9028 H         1 <0>         0.1496
     51 H18        10.2736   -3.3533    4.1421 H         1 <0>         0.1537
     52 H19         6.2013   -3.7761    2.9237 H         1 <0>         0.1687
     53 H20        -0.7933   -3.9418   -2.3925 H         1 <0>         0.4549
@<TRIPOS>BOND
     1    1    6 ar
     2    1    2 ar
     3    1   34 1
     4    2    3 ar
     5    2   35 1
     6    3    4 ar
     7    3   14 1
     8    4    5 ar
     9    4   36 1
    10    5    6 ar
    11    5   37 1
    12    6    7 1
    13    7    8 1
    14    7   38 1
    15    7   39 1
    16    8   12 1
    17    8    9 1
    18    9   10 1
    19    9   40 1
    20    9   41 1
    21   10   11 1
    22   10   42 1
    23   10   43 1
    24   11   12 1
    25   12   13 2
    26   13   44 1
    27   13   53 1
    28   14   15 2
    29   14   16 am
    30   16   17 1
    31   16   45 1
    32   17   22 ar
    33   17   18 ar
    34   18   19 ar
    35   18   46 1
    36   19   20 ar
    37   19   47 1
    38   20   21 ar
    39   20   33 1
    40   21   22 ar
    41   21   48 1
    42   22   23 1
    43   23   24 2
    44   23   25 am
    45   25   26 1
    46   25   49 1
    47   26   31 ar
    48   26   27 ar
    49   27   28 ar
    50   27   50 1
    51   28   29 ar
    52   28   51 1
    53   29   30 ar
    54   29   32 1
    55   30   31 ar
    56   30   52 1
@<TRIPOS>MOLECULE
ZINC06661006
   51    54     0     0     0
SMALL
USER_CHARGES
(2-chlorophenyl)-(2-dimethylaminoethyl)-imino-BLAHol
@<TRIPOS>ATOM
      1 C1         -4.8633    8.8564    4.9425 C.3       1 <0>        -0.0459
      2 C2         -3.7966   10.3082    3.3247 C.3       1 <0>        -0.0559
      3 C3         -3.7107    7.9057    3.0372 C.3       1 <0>        -0.0365
      4 C4         -3.5702    8.0034    1.5168 C.3       1 <0>         0.0441
      5 N1         -2.7768    6.8737    1.0261 N.pl3     1 <0>        -0.5015
      6 C5         -1.4408    7.0079    0.8316 C.2       1 <0>         0.4355
      7 N2         -0.7135    6.0201    0.3961 N.2       1 <0>        -0.4853
      8 C6         -1.2398    4.8132    0.1134 C.2       1 <0>         0.4603
      9 C7         -2.5743    4.6005    0.2827 C.2       1 <0>        -0.2848
     10 C8         -3.3812    5.6614    0.7568 C.cat     1 <0>         0.5296
     11 C9         -3.2007    3.2698   -0.0240 C.3       1 <0>         0.0527
     12 H1         -3.9122    3.0196    0.7630 H         1 <0>         0.1137
     13 C10        -2.1467    2.1983   -0.1011 C.ar      1 <0>        -0.1432
     14 C11        -2.5199    0.8681   -0.0252 C.ar      1 <0>        -0.0549
     15 C12        -1.5651   -0.1274   -0.0899 C.ar      1 <0>        -0.1297
     16 C13        -0.2260    0.2051   -0.2414 C.ar      1 <0>         0.1627
     17 C14         0.1503    1.5358   -0.3217 C.ar      1 <0>        -0.1299
     18 C15        -0.8111    2.5363   -0.2527 C.ar      1 <0>         0.1023
     19 O1         -0.4280    3.8326   -0.3371 O.3       1 <0>        -0.1894
     20 O2          0.7144   -0.7734   -0.3113 O.3       1 <0>        -0.4844
     21 C16        -3.9251    3.3522   -1.3428 C.ar      1 <0>        -0.1010
     22 C17        -3.2275    3.6558   -2.4970 C.ar      1 <0>        -0.0904
     23 C18        -3.8910    3.7271   -3.7074 C.ar      1 <0>        -0.0940
     24 C19        -5.2544    3.5042   -3.7632 C.ar      1 <0>        -0.0867
     25 C20        -5.9539    3.2057   -2.6093 C.ar      1 <0>        -0.0906
     26 C21        -5.2893    3.1294   -1.3979 C.ar      1 <0>        -0.0513
     27 Cl1        -6.1673    2.7550    0.0521 Cl        1 <0>        -0.0526
     28 H2         -3.9546    8.7817    5.5401 H         1 <0>         0.1310
     29 H3         -5.4517    9.7090    5.2813 H         1 <0>         0.1366
     30 H4         -5.4481    7.9435    5.0549 H         1 <0>         0.1256
     31 H5         -3.6062   10.4509    2.2610 H         1 <0>         0.1233
     32 H6         -4.4078   11.1301    3.6978 H         1 <0>         0.1376
     33 H7         -2.8495   10.2861    3.8637 H         1 <0>         0.1337
     34 H8         -4.2091    6.9716    3.2967 H         1 <0>         0.1374
     35 H9         -2.7221    7.9296    3.4958 H         1 <0>         0.1561
     36 H10        -3.0718    8.9373    1.2573 H         1 <0>         0.1568
     37 H11        -4.5587    7.9795    1.0582 H         1 <0>         0.1302
     38 H12        -0.9695    7.9564    1.0432 H         1 <0>         0.2585
     39 H13        -5.3011    6.1730    1.2584 H         1 <0>         0.4281
     40 H14        -3.5618    0.6074    0.0889 H         1 <0>         0.1452
     41 H15        -1.8605   -1.1643   -0.0272 H         1 <0>         0.1534
     42 H16         1.1921    1.7957   -0.4384 H         1 <0>         0.1582
     43 H17         0.8939   -1.0831   -1.2096 H         1 <0>         0.4101
     44 H18        -2.1633    3.8341   -2.4534 H         1 <0>         0.1275
     45 H19        -3.3450    3.9611   -4.6094 H         1 <0>         0.1431
     46 H20        -5.7731    3.5637   -4.7086 H         1 <0>         0.1481
     47 H21        -7.0188    3.0316   -2.6530 H         1 <0>         0.1485
     48 N3         -4.5306    9.0392    3.5141 N.4       1 <0>        -0.3937
     49 H22        -5.4010    9.0731    2.9706 H         1 <0>         0.4353
     50 N4         -4.6902    5.4303    0.9182 N.pl3     1 <0>        -0.7760
     51 H23        -5.0791    4.5055    0.6996 H         1 <0>         0.4524
@<TRIPOS>BOND
     1    1   28 1
     2    1   29 1
     3    1   30 1
     4    1   48 1
     5    2   31 1
     6    2   32 1
     7    2   33 1
     8    2   48 1
     9    3    4 1
    10    3   34 1
    11    3   35 1
    12    3   48 1
    13    4    5 1
    14    4   36 1
    15    4   37 1
    16    5   10 1
    17    5    6 1
    18    6    7 2
    19    6   38 1
    20    7    8 1
    21    8   19 1
    22    8    9 2
    23    9   10 1
    24    9   11 1
    25   10   50 2
    26   11   12 1
    27   11   13 1
    28   11   21 1
    29   13   18 ar
    30   13   14 ar
    31   14   15 ar
    32   14   40 1
    33   15   16 ar
    34   15   41 1
    35   16   17 ar
    36   16   20 1
    37   17   18 ar
    38   17   42 1
    39   18   19 1
    40   20   43 1
    41   21   26 ar
    42   21   22 ar
    43   22   23 ar
    44   22   44 1
    45   23   24 ar
    46   23   45 1
    47   24   25 ar
    48   24   46 1
    49   25   26 ar
    50   25   47 1
    51   26   27 1
    52   39   50 1
    53   48   49 1
    54   50   51 1
@<TRIPOS>MOLECULE
ZINC12433966
   60    62     0     0     0
SMALL
USER_CHARGES
1-[3-(3,4-dimethylphenyl)-1H-pyrazol-4-yl]-N-[[(3R)-1-(2-methoxyethyl)-3-piperidyl]methyl]methanamine
@<TRIPOS>ATOM
      1 C1         -2.4569   -2.6296    6.2698 C.3       1 <0>        -0.1307
      2 C2         -2.3705   -3.2508    4.8994 C.ar      1 <0>        -0.0613
      3 C3         -1.7227   -2.5794    3.8780 C.ar      1 <0>        -0.1094
      4 C4         -1.6357   -3.1461    2.6227 C.ar      1 <0>        -0.1256
      5 C5         -2.2115   -4.3921    2.3823 C.ar      1 <0>        -0.0285
      6 C6         -2.8627   -5.0637    3.4145 C.ar      1 <0>        -0.0746
      7 C7         -2.9388   -4.4901    4.6678 C.ar      1 <0>        -0.0583
      8 C8         -3.6429   -5.2155    5.7854 C.3       1 <0>        -0.1332
      9 C9         -2.1260   -5.0040    1.0328 C.2       1 <0>         0.1383
     10 C10        -2.1672   -4.3138   -0.1942 C.2       1 <0>        -0.3211
     11 C11        -2.0665   -5.2256   -1.1858 C.2       1 <0>         0.1247
     12 N1         -1.9566   -6.4466   -0.6196 N.pl3     1 <0>        -0.4499
     13 H1         -1.8613   -7.3137   -1.1085 H         1 <0>         0.4662
     14 N2         -1.9992   -6.2878    0.7714 N.2       1 <0>        -0.2506
     15 C12        -2.3054   -2.8234   -0.3698 C.3       1 <0>         0.0896
     16 C13        -1.0967   -0.7259   -0.3244 C.3       1 <0>        -0.0026
     17 C14         0.2791   -0.0953   -0.0998 C.3       1 <0>        -0.1422
     18 H2          0.6644   -0.3996    0.8733 H         1 <0>         0.1160
     19 C15         1.2395   -0.5588   -1.1986 C.3       1 <0>        -0.1494
     20 C16         2.5960    0.1234   -1.0011 C.3       1 <0>        -0.1461
     21 C17         2.4057    1.6417   -1.0217 C.3       1 <0>        -0.0069
     22 C18         0.1560    1.4294   -0.1466 C.3       1 <0>         0.0011
     23 C19         1.3803    3.4971    0.1472 C.3       1 <0>         0.0007
     24 C20         0.8374    3.8790    1.5257 C.3       1 <0>         0.0236
     25 O1          1.7735    3.4867    2.5317 O.3       1 <0>        -0.4044
     26 C21         1.3606    3.7994    3.8635 C.3       1 <0>         0.0293
     27 H3         -1.5937   -2.9340    6.8617 H         1 <0>         0.0824
     28 H4         -2.4686   -1.5437    6.1763 H         1 <0>         0.0709
     29 H5         -3.3707   -2.9618    6.7623 H         1 <0>         0.0816
     30 H6         -1.2804   -1.6119    4.0644 H         1 <0>         0.1301
     31 H7         -1.1258   -2.6232    1.8272 H         1 <0>         0.0845
     32 H8         -3.3068   -6.0316    3.2346 H         1 <0>         0.1371
     33 H9         -2.9289   -5.8449    6.3166 H         1 <0>         0.0843
     34 H10        -4.0717   -4.4896    6.4763 H         1 <0>         0.0810
     35 H11        -4.4373   -5.8366    5.3717 H         1 <0>         0.0758
     36 H12        -2.0713   -5.0149   -2.2450 H         1 <0>         0.1939
     37 H13        -3.0204   -2.4368    0.3564 H         1 <0>         0.1398
     38 H14        -2.6589   -2.6076   -1.3780 H         1 <0>         0.1422
     39 H15        -1.8033   -0.3248    0.4021 H         1 <0>         0.1437
     40 H16        -1.4418   -0.4956   -1.3324 H         1 <0>         0.1455
     41 H17         1.3638   -1.6402   -1.1413 H         1 <0>         0.0907
     42 H18         0.8341   -0.2900   -2.1740 H         1 <0>         0.1010
     43 H19         3.0185   -0.1774   -0.0423 H         1 <0>         0.0941
     44 H20         3.2713   -0.1697   -1.8049 H         1 <0>         0.1243
     45 H21         3.3677    2.1304   -0.8670 H         1 <0>         0.1389
     46 H22         1.9962    1.9433   -1.9858 H         1 <0>         0.1363
     47 H23        -0.2430    1.7320   -1.1148 H         1 <0>         0.1435
     48 H24        -0.5161    1.7640    0.6436 H         1 <0>         0.1371
     49 H25         2.3675    3.9385    0.0104 H         1 <0>         0.1453
     50 H26         0.7060    3.8687   -0.6245 H         1 <0>         0.1486
     51 H27         0.6864    4.9576    1.5708 H         1 <0>         0.1031
     52 H28        -0.1123    3.3718    1.6955 H         1 <0>         0.0715
     53 H29         2.1247    3.4700    4.5676 H         1 <0>         0.1035
     54 H30         1.2205    4.8763    3.9570 H         1 <0>         0.0599
     55 H31         0.4217    3.2905    4.0818 H         1 <0>         0.0515
     56 N3         -0.9912   -2.1879   -0.1585 N.4       1 <0>        -0.5321
     57 H32        -0.3216   -2.5589   -0.8428 H         1 <0>         0.4278
     58 H33        -0.6621   -2.3981    0.7911 H         1 <0>         0.4241
     59 N4          1.4908    2.0256    0.0742 N.4       1 <0>        -0.3931
     60 H34         1.8693    1.6752    0.9620 H         1 <0>         0.4368
@<TRIPOS>BOND
     1    1    2 1
     2    1   27 1
     3    1   28 1
     4    1   29 1
     5    2    7 ar
     6    2    3 ar
     7    3    4 ar
     8    3   30 1
     9    4    5 ar
    10    4   31 1
    11    5    6 ar
    12    5    9 1
    13    6    7 ar
    14    6   32 1
    15    7    8 1
    16    8   33 1
    17    8   34 1
    18    8   35 1
    19    9   14 2
    20    9   10 1
    21   10   11 2
    22   10   15 1
    23   11   12 1
    24   11   36 1
    25   12   13 1
    26   12   14 1
    27   15   37 1
    28   15   38 1
    29   15   56 1
    30   16   17 1
    31   16   39 1
    32   16   40 1
    33   16   56 1
    34   17   18 1
    35   17   22 1
    36   17   19 1
    37   19   20 1
    38   19   41 1
    39   19   42 1
    40   20   21 1
    41   20   43 1
    42   20   44 1
    43   21   45 1
    44   21   46 1
    45   21   59 1
    46   22   47 1
    47   22   48 1
    48   22   59 1
    49   23   24 1
    50   23   49 1
    51   23   50 1
    52   23   59 1
    53   24   25 1
    54   24   51 1
    55   24   52 1
    56   25   26 1
    57   26   53 1
    58   26   54 1
    59   26   55 1
    60   56   57 1
    61   56   58 1
    62   59   60 1
@<TRIPOS>MOLECULE
ZINC39627541
   61    63     0     0     0
SMALL
USER_CHARGES

@<TRIPOS>ATOM
      1 C1         -3.0621   -0.2705    5.7741 C.3       1 <0>        -0.0493
      2 N1         -3.2145   -1.6878    5.4189 N.4       1 <0>        -0.3871
      3 C2         -4.3806   -2.2449    6.1172 C.3       1 <0>        -0.0527
      4 C3         -3.4076   -1.8109    3.9679 C.3       1 <0>        -0.0085
      5 C4         -3.4415   -3.2910    3.5818 C.3       1 <0>        -0.1636
      6 C5         -3.6427   -3.4193    2.0705 C.3       1 <0>         0.1197
      7 N2         -3.6752   -4.8365    1.7007 N.am      1 <0>        -0.7347
      8 C6         -3.8438   -5.1930    0.4120 C.2       1 <0>         0.5248
      9 O1         -3.9685   -4.3406   -0.4417 O.2       1 <0>        -0.5080
     10 C7         -3.8772   -6.6508    0.0316 C.3       1 <0>        -0.1135
     11 H1         -3.2785   -7.2379    0.7281 H         1 <0>         0.1148
     12 C8         -3.3632   -6.8419   -1.4130 C.3       1 <0>         0.0982
     13 N3         -4.2173   -7.9143   -1.9754 N.am      1 <0>        -0.6196
     14 C9         -5.5709   -7.6241   -1.4447 C.3       1 <0>         0.1089
     15 C10        -5.3266   -7.1646    0.0064 C.3       1 <0>        -0.0737
     16 C11        -6.2918   -6.0414    0.3731 C.3       1 <0>        -0.1436
     17 C12        -7.7210   -6.5906    0.3985 C.3       1 <0>        -0.0095
     18 N4         -7.8113   -7.6800    1.3781 N.4       1 <0>        -0.5039
     19 C13        -6.9494   -8.7951    0.9678 C.3       1 <0>        -0.0134
     20 C14        -5.4875   -8.3392    0.9666 C.3       1 <0>        -0.1328
     21 C15        -3.8471   -8.9255   -2.7860 C.2       1 <0>         0.5923
     22 O2         -4.6865   -9.6775   -3.2419 O.2       1 <0>        -0.5011
     23 C16        -2.4217   -9.1199   -3.1204 C.ar      1 <0>        -0.1666
     24 C17        -1.5796   -8.0161   -3.2714 C.ar      1 <0>        -0.0622
     25 C18        -0.2490   -8.2047   -3.5833 C.ar      1 <0>        -0.0552
     26 C19         0.2535   -9.4856   -3.7470 C.ar      1 <0>        -0.0471
     27 C20        -0.5727  -10.5835   -3.5994 C.ar      1 <0>        -0.1407
     28 C21        -1.9076  -10.4101   -3.2816 C.ar      1 <0>         0.1641
     29 F1         -2.7135  -11.4840   -3.1320 F         1 <0>        -0.1122
     30 Cl1         0.7986   -6.8334   -3.7719 Cl        1 <0>        -0.0422
     31 H2         -2.9188   -0.1791    6.8507 H         1 <0>         0.1285
     32 H3         -2.1968    0.1429    5.2560 H         1 <0>         0.1268
     33 H4         -3.9577    0.2763    5.4790 H         1 <0>         0.1242
     34 H5         -5.2762   -1.6981    5.8222 H         1 <0>         0.1233
     35 H6         -4.4937   -3.2965    5.8537 H         1 <0>         0.1199
     36 H7         -4.2373   -2.1535    7.1939 H         1 <0>         0.1280
     37 H8         -4.3492   -1.3401    3.6854 H         1 <0>         0.1345
     38 H9         -2.5851   -1.3188    3.4488 H         1 <0>         0.1377
     39 H10        -2.5000   -3.7619    3.8642 H         1 <0>         0.0971
     40 H11        -4.2640   -3.7832    4.1009 H         1 <0>         0.0926
     41 H12        -4.5843   -2.9484    1.7880 H         1 <0>         0.0815
     42 H13        -2.8202   -2.9272    1.5514 H         1 <0>         0.0848
     43 H14        -3.5754   -5.5183    2.3835 H         1 <0>         0.4032
     44 H15        -3.4837   -5.9213   -1.9840 H         1 <0>         0.1048
     45 H16        -2.3184   -7.1522   -1.4067 H         1 <0>         0.1022
     46 H17        -6.0436   -6.8295   -2.0219 H         1 <0>         0.0892
     47 H18        -6.1862   -8.5238   -1.4593 H         1 <0>         0.0934
     48 H19        -6.0356   -5.6482    1.3569 H         1 <0>         0.0920
     49 H20        -6.2212   -5.2447   -0.3674 H         1 <0>         0.1259
     50 H21        -8.4111   -5.7941    0.6765 H         1 <0>         0.1399
     51 H22        -7.9823   -6.9685   -0.5900 H         1 <0>         0.1365
     52 H23        -7.5157   -7.3431    2.2821 H         1 <0>         0.4245
     53 H24        -7.0707   -9.6237    1.6655 H         1 <0>         0.1427
     54 H25        -7.2290   -9.1205   -0.0342 H         1 <0>         0.1369
     55 H26        -4.8499   -9.1624    0.6446 H         1 <0>         0.1201
     56 H27        -5.2023   -8.0291    1.9719 H         1 <0>         0.0945
     57 H28        -1.9693   -7.0168   -3.1446 H         1 <0>         0.1502
     58 H29         1.2960   -9.6267   -3.9915 H         1 <0>         0.1565
     59 H30        -0.1744  -11.5790   -3.7288 H         1 <0>         0.1606
     60 H31        -2.3854   -2.1939    5.6921 H         1 <0>         0.4288
     61 H32        -8.7667   -7.9992    1.4370 H         1 <0>         0.4374
@<TRIPOS>BOND
     1    1    2 1
     2    1   31 1
     3    1   32 1
     4    1   33 1
     5    2    3 1
     6    2    4 1
     7    2   60 1
     8    3   34 1
     9    3   35 1
    10    3   36 1
    11    4    5 1
    12    4   37 1
    13    4   38 1
    14    5    6 1
    15    5   39 1
    16    5   40 1
    17    6    7 1
    18    6   41 1
    19    6   42 1
    20    7    8 am
    21    7   43 1
    22    8    9 2
    23    8   10 1
    24   10   11 1
    25   10   15 1
    26   10   12 1
    27   12   13 1
    28   12   44 1
    29   12   45 1
    30   13   14 1
    31   13   21 am
    32   14   15 1
    33   14   46 1
    34   14   47 1
    35   15   20 1
    36   15   16 1
    37   16   17 1
    38   16   48 1
    39   16   49 1
    40   17   18 1
    41   17   50 1
    42   17   51 1
    43   18   19 1
    44   18   52 1
    45   18   61 1
    46   19   20 1
    47   19   53 1
    48   19   54 1
    49   20   55 1
    50   20   56 1
    51   21   22 2
    52   21   23 1
    53   23   28 ar
    54   23   24 ar
    55   24   25 ar
    56   24   57 1
    57   25   26 ar
    58   25   30 1
    59   26   27 ar
    60   26   58 1
    61   27   28 ar
    62   27   59 1
    63   28   29 1
@<TRIPOS>MOLECULE
ZINC50362011
   45    45     0     0     0
SMALL
USER_CHARGES

@<TRIPOS>ATOM
      1 C1          1.8146    1.0234    0.4385 C.3       1 <0>        -0.1550
      2 C2          0.9702   -0.1625   -0.0321 C.3       1 <0>        -0.1174
      3 C3          1.8624   -1.1630   -0.7696 C.3       1 <0>        -0.1710
      4 C4          0.3305   -0.8454    1.1784 C.3       1 <0>        -0.0159
      5 N1         -0.5684   -1.9130    0.7200 N.4       1 <0>        -0.3998
      6 C5         -1.0628   -2.6681    1.8790 C.3       1 <0>        -0.0375
      7 C6         -1.4499   -4.0815    1.4395 C.3       1 <0>        -0.1453
      8 C7         -0.2730   -4.7277    0.7058 C.3       1 <0>        -0.1926
      9 C8         -1.8056   -4.9188    2.6697 C.3       1 <0>        -0.1574
     10 C9         -1.7041   -1.3215    0.0002 C.3       1 <0>         0.1120
     11 H1         -1.3568   -0.9003   -0.9432 H         1 <0>         0.1856
     12 C10        -2.7503   -2.4026   -0.2784 C.3       1 <0>        -0.0588
     13 N2         -2.2220   -3.3521   -1.2669 N.4       1 <0>        -0.6532
     14 C11        -2.3190   -0.2320    0.8405 C.2       1 <0>        -0.1016
     15 C12        -2.8289    0.9238    0.3789 C.2       1 <0>        -0.0720
     16 C13        -3.2961    1.6438    1.5031 C.2       1 <0>        -0.1538
     17 C14        -3.0432    0.8835    2.5855 C.2       1 <0>         0.0566
     18 O1         -2.4558   -0.2536    2.1768 O.3       1 <0>        -0.1547
     19 Br1        -3.4513    1.3365    4.3755 Br        1 <0>         0.1318
     20 Br2        -4.1175    3.3471    1.4890 Br        1 <0>         0.0628
     21 H2          2.2704    1.5099   -0.4239 H         1 <0>         0.0863
     22 H3          1.1790    1.7362    0.9639 H         1 <0>         0.0711
     23 H4          2.5960    0.6690    1.1107 H         1 <0>         0.0747
     24 H5          0.1888    0.1919   -0.7044 H         1 <0>         0.0899
     25 H6          1.2763   -2.0409   -1.0415 H         1 <0>         0.0340
     26 H7          2.2608   -0.6985   -1.6717 H         1 <0>         0.0945
     27 H8          2.6858   -1.4625   -0.1212 H         1 <0>         0.0847
     28 H9          1.1104   -1.2727    1.8087 H         1 <0>         0.1500
     29 H10        -0.2381   -0.1124    1.7506 H         1 <0>         0.1409
     30 H11        -0.2810   -2.7244    2.6364 H         1 <0>         0.1597
     31 H12        -1.9359   -2.1650    2.2948 H         1 <0>         0.1525
     32 H13        -2.3106   -4.0318    0.7726 H         1 <0>         0.0817
     33 H14        -0.4679   -5.7918    0.5725 H         1 <0>         0.1159
     34 H15        -0.1495   -4.2560   -0.2691 H         1 <0>         0.0345
     35 H16         0.6369   -4.5955    1.2912 H         1 <0>         0.1052
     36 H17        -2.6440   -4.4584    3.1924 H         1 <0>         0.0796
     37 H18        -2.0813   -5.9257    2.3566 H         1 <0>         0.0902
     38 H19        -0.9448   -4.9685    3.3366 H         1 <0>         0.0836
     39 H20        -2.9812   -2.9316    0.6463 H         1 <0>         0.1839
     40 H21        -3.6567   -1.9392   -0.6679 H         1 <0>         0.1931
     41 H22        -2.8995   -4.0824   -1.4273 H         1 <0>         0.4624
     42 H23        -2.0375   -2.8683   -2.1329 H         1 <0>         0.4490
     43 H24        -2.8726    1.2416   -0.6523 H         1 <0>         0.1865
     44 H25        -0.0660   -2.5340    0.1035 H         1 <0>         0.4150
     45 H26        -1.3660   -3.7579   -0.9194 H         1 <0>         0.4182
@<TRIPOS>BOND
     1    1    2 1
     2    1   21 1
     3    1   22 1
     4    1   23 1
     5    2    3 1
     6    2    4 1
     7    2   24 1
     8    3   25 1
     9    3   26 1
    10    3   27 1
    11    4    5 1
    12    4   28 1
    13    4   29 1
    14    5    6 1
    15    5   10 1
    16    5   44 1
    17    6    7 1
    18    6   30 1
    19    6   31 1
    20    7    8 1
    21    7    9 1
    22    7   32 1
    23    8   33 1
    24    8   34 1
    25    8   35 1
    26    9   36 1
    27    9   37 1
    28    9   38 1
    29   10   11 1
    30   10   12 1
    31   10   14 1
    32   12   13 1
    33   12   39 1
    34   12   40 1
    35   13   41 1
    36   13   42 1
    37   13   45 1
    38   14   18 1
    39   14   15 2
    40   15   16 1
    41   15   43 1
    42   16   17 2
    43   16   20 1
    44   17   18 1
    45   17   19 1
@<TRIPOS>MOLECULE
ZINC49157796
   58    60     0     0     0
SMALL
USER_CHARGES

@<TRIPOS>ATOM
      1 C1         -1.5970    0.4482    0.4238 C.3       1 <0>         0.1032
      2 N1         -0.2728    0.0028   -0.0171 N.pl3     1 <0>        -0.6784
      3 C2          0.9158    0.3543    0.7640 C.3       1 <0>         0.0968
      4 C3         -0.1441   -0.7531   -1.1764 C.ar      1 <0>         0.4256
      5 C4         -0.1446   -2.1423   -1.0973 C.ar      1 <0>        -0.1160
      6 C5         -0.0158   -2.8821   -2.2587 C.ar      1 <0>         0.0271
      7 C6          0.1097   -2.2055   -3.4650 C.ar      1 <0>        -0.1246
      8 C7          0.1023   -0.8253   -3.4701 C.ar      1 <0>         0.1483
      9 N2         -0.0276   -0.1450   -2.3467 N.ar      1 <0>        -0.4601
     10 C8         -0.2830   -2.8313    0.2358 C.3       1 <0>         0.1851
     11 N3         -1.6882   -2.8160    0.6498 N.am      1 <0>        -0.7442
     12 C9         -2.0525   -3.3793    1.8187 C.2       1 <0>         0.7097
     13 O1         -1.2150   -3.9002    2.5296 O.2       1 <0>        -0.5686
     14 N4         -3.3453   -3.3652    2.1996 N.am      1 <0>        -0.7468
     15 C10        -3.7413   -3.9776    3.4702 C.3       1 <0>         0.1418
     16 C11        -5.2517   -3.8252    3.6609 C.3       1 <0>        -0.1638
     17 C12        -5.6653   -4.4647    4.9879 C.3       1 <0>        -0.0054
     18 N5         -7.1154   -4.3184    5.1710 N.4       1 <0>        -0.3830
     19 C13        -7.4991   -4.8353    6.4936 C.3       1 <0>        -0.0027
     20 C14        -8.9351   -4.4006    6.7893 C.3       1 <0>        -0.1063
     21 C15        -9.8264   -4.7608    5.6282 C.ar      1 <0>        -0.0913
     22 C16       -11.1988   -4.7735    5.8225 C.ar      1 <0>        -0.1036
     23 C17       -12.0467   -5.0955    4.7816 C.ar      1 <0>        -0.0894
     24 C18       -11.5241   -5.4065    3.5399 C.ar      1 <0>        -0.1043
     25 C19       -10.1575   -5.3954    3.3462 C.ar      1 <0>        -0.0941
     26 C20        -9.3042   -5.0737    4.3913 C.ar      1 <0>        -0.1387
     27 C21        -7.8198   -5.0823    4.1373 C.3       1 <0>         0.0461
     28 H1         -1.8188    1.4201   -0.0168 H         1 <0>         0.0586
     29 H2         -2.3481   -0.2749    0.1056 H         1 <0>         0.0604
     30 H3         -1.6095    0.5305    1.5106 H         1 <0>         0.0888
     31 H4          0.6221    0.9657    1.6172 H         1 <0>         0.0968
     32 H5          1.3997   -0.5558    1.1185 H         1 <0>         0.0659
     33 H6          1.6098    0.9144    0.1373 H         1 <0>         0.0608
     34 H7         -0.0124   -3.9616   -2.2282 H         1 <0>         0.1818
     35 H8          0.2124   -2.7537   -4.3898 H         1 <0>         0.1929
     36 H9          0.1999   -0.2951   -4.4059 H         1 <0>         0.2138
     37 H10         0.0589   -3.8626    0.1489 H         1 <0>         0.1011
     38 H11         0.3203   -2.3098    0.9787 H         1 <0>         0.0984
     39 H12        -2.3565   -2.4004    0.0826 H         1 <0>         0.3949
     40 H13        -4.0135   -2.9496    1.6324 H         1 <0>         0.3985
     41 H14        -3.4813   -5.0360    3.4600 H         1 <0>         0.0816
     42 H15        -3.2199   -3.4832    4.2899 H         1 <0>         0.0814
     43 H16        -5.5117   -2.7667    3.6711 H         1 <0>         0.0951
     44 H17        -5.7731   -4.3196    2.8413 H         1 <0>         0.0948
     45 H18        -5.4053   -5.5232    4.9778 H         1 <0>         0.1374
     46 H19        -5.1438   -3.9703    5.8076 H         1 <0>         0.1398
     47 H20        -7.4391   -5.9236    6.4926 H         1 <0>         0.1346
     48 H21        -6.8304   -4.4300    7.2529 H         1 <0>         0.1394
     49 H22        -9.2889   -4.9056    7.6881 H         1 <0>         0.1256
     50 H23        -8.9624   -3.3222    6.9461 H         1 <0>         0.1039
     51 H24       -11.6067   -4.5306    6.7926 H         1 <0>         0.1365
     52 H25       -13.1154   -5.1049    4.9370 H         1 <0>         0.1385
     53 H26       -12.1841   -5.6580    2.7229 H         1 <0>         0.1382
     54 H27        -9.7506   -5.6388    2.3758 H         1 <0>         0.1327
     55 H28        -7.6195   -4.6376    3.1626 H         1 <0>         0.1352
     56 H29        -7.4601   -6.1112    4.1430 H         1 <0>         0.1380
     57 H30        -7.3679   -3.3440    5.1017 H         1 <0>         0.4259
     58 H31        -0.0338    0.8245   -2.3787 H         1 <0>         0.4461
@<TRIPOS>BOND
     1    1    2 1
     2    1   28 1
     3    1   29 1
     4    1   30 1
     5    2    3 1
     6    2    4 1
     7    3   31 1
     8    3   32 1
     9    3   33 1
    10    4    9 ar
    11    4    5 ar
    12    5    6 ar
    13    5   10 1
    14    6    7 ar
    15    6   34 1
    16    7    8 ar
    17    7   35 1
    18    8    9 ar
    19    8   36 1
    20    9   58 1
    21   10   11 1
    22   10   37 1
    23   10   38 1
    24   11   12 am
    25   11   39 1
    26   12   13 2
    27   12   14 am
    28   14   15 1
    29   14   40 1
    30   15   16 1
    31   15   41 1
    32   15   42 1
    33   16   17 1
    34   16   43 1
    35   16   44 1
    36   17   18 1
    37   17   45 1
    38   17   46 1
    39   18   27 1
    40   18   19 1
    41   18   57 1
    42   19   20 1
    43   19   47 1
    44   19   48 1
    45   20   21 1
    46   20   49 1
    47   20   50 1
    48   21   26 ar
    49   21   22 ar
    50   22   23 ar
    51   22   51 1
    52   23   24 ar
    53   23   52 1
    54   24   25 ar
    55   24   53 1
    56   25   26 ar
    57   25   54 1
    58   26   27 1
    59   27   55 1
    60   27   56 1
@<TRIPOS>MOLECULE
ZINC04366780
   65    70     0     0     0
SMALL
USER_CHARGES
2-(6-aminopurin-9-yl)-5-(trityloxymethyl)tetrahydrofuran-3,4-diol
@<TRIPOS>ATOM
      1 C1         -6.4359    4.7608   -4.0119 C.ar      1 <0>        -0.1135
      2 C2         -5.2545    4.7647   -3.2941 C.ar      1 <0>        -0.1206
      3 C3         -5.0480    3.8291   -2.2977 C.ar      1 <0>        -0.0970
      4 C4         -6.0233    2.8901   -2.0184 C.ar      1 <0>        -0.1100
      5 C5         -7.2027    2.8831   -2.7395 C.ar      1 <0>        -0.1026
      6 C6         -7.4110    3.8215   -3.7330 C.ar      1 <0>        -0.1217
      7 C7         -5.7983    1.8701   -0.9321 C.3       1 <0>         0.2530
      8 C8         -6.4279    0.5612   -1.3338 C.ar      1 <0>        -0.1143
      9 C9         -7.1480   -0.1719   -0.4091 C.ar      1 <0>        -0.0900
     10 C10        -7.7293   -1.3704   -0.7788 C.ar      1 <0>        -0.1200
     11 C11        -7.5824   -1.8405   -2.0704 C.ar      1 <0>        -0.1086
     12 C12        -6.8582   -1.1097   -2.9937 C.ar      1 <0>        -0.1221
     13 C13        -6.2806    0.0909   -2.6253 C.ar      1 <0>        -0.1049
     14 C14        -6.4235    2.3557    0.3502 C.ar      1 <0>        -0.0719
     15 C15        -7.6944    2.8992    0.3370 C.ar      1 <0>        -0.1038
     16 C16        -8.2696    3.3406    1.5140 C.ar      1 <0>        -0.1205
     17 C17        -7.5701    3.2474    2.7026 C.ar      1 <0>        -0.1146
     18 C18        -6.2972    2.7083    2.7151 C.ar      1 <0>        -0.1213
     19 C19        -5.7237    2.2630    1.5388 C.ar      1 <0>        -0.0924
     20 O1         -4.3950    1.6837   -0.7371 O.3       1 <0>        -0.3510
     21 C20        -3.7266    1.0922   -1.8531 C.3       1 <0>         0.0613
     22 C21        -2.2398    0.9310   -1.5303 C.3       1 <0>         0.0712
     23 H1         -2.1125    0.3996   -0.5872 H         1 <0>         0.1013
     24 C22        -1.5199    0.1798   -2.6722 C.3       1 <0>         0.0478
     25 H2         -2.0648    0.2927   -3.6094 H         1 <0>         0.0869
     26 C23        -0.1394    0.8679   -2.7624 C.3       1 <0>         0.0378
     27 H3         -0.0004    1.3228   -3.7432 H         1 <0>         0.0983
     28 C24        -0.1886    1.9534   -1.6643 C.3       1 <0>         0.3084
     29 H4          0.3296    2.8529   -1.9965 H         1 <0>         0.1471
     30 O2         -1.5947    2.2219   -1.4736 O.3       1 <0>        -0.3264
     31 N1          0.4076    1.4513   -0.4239 N.pl3     1 <0>        -0.4718
     32 C25        -0.2680    1.0005    0.6710 C.2       1 <0>         0.2643
     33 N2          0.5739    0.6304    1.5917 N.2       1 <0>        -0.4530
     34 C26         1.8397    0.8195    1.1476 C.ar      1 <0>        -0.0701
     35 C27         1.7482    1.3485   -0.1510 C.ar      1 <0>         0.3203
     36 N3          2.8651    1.6258   -0.8156 N.ar      1 <0>        -0.5282
     37 C28         4.0428    1.4099   -0.2682 C.ar      1 <0>         0.3421
     38 N4          4.1789    0.9147    0.9482 N.ar      1 <0>        -0.5773
     39 C29         3.1189    0.6065    1.6885 C.ar      1 <0>         0.4452
     40 N5          3.2716    0.0883    2.9626 N.pl3     1 <0>        -0.7447
     41 O3          0.9056   -0.0690   -2.4939 O.3       1 <0>        -0.5246
     42 O4         -1.3696   -1.2031   -2.3452 O.3       1 <0>        -0.5351
     43 H5         -6.5972    5.4918   -4.7904 H         1 <0>         0.1221
     44 H6         -4.4927    5.4986   -3.5120 H         1 <0>         0.1232
     45 H7         -4.1249    3.8320   -1.7371 H         1 <0>         0.1317
     46 H8         -7.9628    2.1467   -2.5243 H         1 <0>         0.1227
     47 H9         -8.3341    3.8186   -4.2935 H         1 <0>         0.1231
     48 H10        -7.2594    0.1934    0.6011 H         1 <0>         0.1270
     49 H11        -8.2953   -1.9411   -0.0575 H         1 <0>         0.1248
     50 H12        -8.0336   -2.7785   -2.3583 H         1 <0>         0.1238
     51 H13        -6.7434   -1.4770   -4.0028 H         1 <0>         0.1237
     52 H14        -5.7145    0.6616   -3.3465 H         1 <0>         0.1202
     53 H15        -8.2394    2.9757   -0.5922 H         1 <0>         0.1226
     54 H16        -9.2642    3.7614    1.5043 H         1 <0>         0.1234
     55 H17        -8.0181    3.5953    3.6216 H         1 <0>         0.1225
     56 H18        -5.7507    2.6355    3.6437 H         1 <0>         0.1245
     57 H19        -4.7291    1.8422    1.5484 H         1 <0>         0.1314
     58 H20        -3.8412    1.7336   -2.7269 H         1 <0>         0.0685
     59 H21        -4.1615    0.1144   -2.0606 H         1 <0>         0.0844
     60 H22        -1.3434    0.9609    0.7626 H         1 <0>         0.2192
     61 H23         4.9308    1.6465   -0.8355 H         1 <0>         0.2030
     62 H24         2.8354    0.6976    3.6247 H         1 <0>         0.3685
     63 H25         4.1601   -0.0541    3.3250 H         1 <0>         0.3722
     64 H26         0.9815   -0.7730   -3.1525 H         1 <0>         0.3815
     65 H27        -0.8713   -1.7103   -3.0006 H         1 <0>         0.3833
@<TRIPOS>BOND
     1    1    6 ar
     2    1    2 ar
     3    1   43 1
     4    2    3 ar
     5    2   44 1
     6    3    4 ar
     7    3   45 1
     8    4    5 ar
     9    4    7 1
    10    5    6 ar
    11    5   46 1
    12    6   47 1
    13    7    8 1
    14    7   14 1
    15    7   20 1
    16    8   13 ar
    17    8    9 ar
    18    9   10 ar
    19    9   48 1
    20   10   11 ar
    21   10   49 1
    22   11   12 ar
    23   11   50 1
    24   12   13 ar
    25   12   51 1
    26   13   52 1
    27   14   19 ar
    28   14   15 ar
    29   15   16 ar
    30   15   53 1
    31   16   17 ar
    32   16   54 1
    33   17   18 ar
    34   17   55 1
    35   18   19 ar
    36   18   56 1
    37   19   57 1
    38   20   21 1
    39   21   22 1
    40   21   58 1
    41   21   59 1
    42   22   23 1
    43   22   30 1
    44   22   24 1
    45   24   25 1
    46   24   26 1
    47   24   42 1
    48   26   27 1
    49   26   28 1
    50   26   41 1
    51   28   29 1
    52   28   30 1
    53   28   31 1
    54   31   35 1
    55   31   32 1
    56   32   33 2
    57   32   60 1
    58   33   34 1
    59   34   39 ar
    60   34   35 ar
    61   35   36 ar
    62   36   37 ar
    63   37   38 ar
    64   37   61 1
    65   38   39 ar
    66   39   40 1
    67   40   62 1
    68   40   63 1
    69   41   64 1
    70   42   65 1
@<TRIPOS>MOLECULE
ZINC12503249
   51    52     0     0     0
SMALL
USER_CHARGES
N-(2,4-dichlorophenyl)-4-[N'-[[2-(2-methylphenoxy)acetyl]carbamothioyl]hydrazino]-4-oxo-butanamide
@<TRIPOS>ATOM
      1 C1         12.5425   -3.7285   -0.0548 C.3       1 <0>        -0.1109
      2 C2         11.3582   -4.6604   -0.0606 C.ar      1 <0>        -0.1059
      3 C3         11.5545   -6.0280   -0.0728 C.ar      1 <0>        -0.0827
      4 C4         10.4686   -6.8834   -0.0777 C.ar      1 <0>        -0.1486
      5 C5          9.1833   -6.3730   -0.0699 C.ar      1 <0>        -0.0869
      6 C6          8.9817   -5.0067   -0.0525 C.ar      1 <0>        -0.2064
      7 C7         10.0700   -4.1460   -0.0533 C.ar      1 <0>         0.1220
      8 O1          9.8743   -2.8012   -0.0414 O.3       1 <0>        -0.2842
      9 C8          8.5208   -2.3427   -0.0345 C.3       1 <0>         0.0469
     10 C9          8.5010   -0.8358   -0.0216 C.2       1 <0>         0.4885
     11 O2          9.5429   -0.2159   -0.0187 O.2       1 <0>        -0.3748
     12 N1          7.3250   -0.1774   -0.0133 N.am      1 <0>        -0.6446
     13 C10         7.3073    1.1702   -0.0018 C.2       1 <0>         0.5157
     14 S1          8.7785    2.0456    0.0023 S.2       1 <0>        -0.4515
     15 N2          6.1313    1.8286    0.0065 N.pl3     1 <0>        -0.4576
     16 N3          4.9274    1.1122    0.0031 N.am      1 <0>        -0.5528
     17 C11         3.7514    1.7706    0.0114 C.2       1 <0>         0.5224
     18 O3          3.7355    2.9833    0.0218 O.2       1 <0>        -0.5152
     19 C12         2.4563    1.0000    0.0078 C.3       1 <0>        -0.1158
     20 C13         1.2804    1.9788    0.0188 C.3       1 <0>        -0.1267
     21 C14        -0.0146    1.2082    0.0152 C.2       1 <0>         0.5211
     22 O4          0.0013   -0.0046    0.0048 O.2       1 <0>        -0.5171
     23 N4         -1.1906    1.8667    0.0178 N.am      1 <0>        -0.6694
     24 C15        -2.3919    1.1547   -0.0860 C.ar      1 <0>         0.1592
     25 C16        -2.5102   -0.0989    0.4990 C.ar      1 <0>        -0.0977
     26 C17        -3.6961   -0.7992    0.3951 C.ar      1 <0>        -0.0848
     27 C18        -4.7665   -0.2529   -0.2913 C.ar      1 <0>        -0.0386
     28 C19        -4.6520    0.9960   -0.8759 C.ar      1 <0>        -0.0828
     29 C20        -3.4695    1.7039   -0.7699 C.ar      1 <0>        -0.0540
     30 Cl1        -3.3285    3.2741   -1.4968 Cl        1 <0>        -0.0482
     31 Cl2        -6.2554   -1.1363   -0.4196 Cl        1 <0>        -0.0526
     32 H1         12.8302   -3.5130    0.9742 H         1 <0>         0.0709
     33 H2         13.3773   -4.1986   -0.5747 H         1 <0>         0.0666
     34 H3         12.2766   -2.7999   -0.5599 H         1 <0>         0.0745
     35 H4         12.5573   -6.4291   -0.0781 H         1 <0>         0.1316
     36 H5         10.6241   -7.9521   -0.0872 H         1 <0>         0.1258
     37 H6          8.3366   -7.0433   -0.0734 H         1 <0>         0.1261
     38 H7          7.9778   -4.6086   -0.0419 H         1 <0>         0.1265
     39 H8          8.0138   -2.7203    0.8535 H         1 <0>         0.0994
     40 H9          8.0098   -2.7051   -0.9264 H         1 <0>         0.0993
     41 H10         6.4915   -0.6734   -0.0156 H         1 <0>         0.4041
     42 H11         6.1186    2.7985    0.0148 H         1 <0>         0.4589
     43 H12         4.9401    0.1423   -0.0052 H         1 <0>         0.4210
     44 H13         2.4089    0.3651    0.8925 H         1 <0>         0.1152
     45 H14         2.4048    0.3802   -0.8874 H         1 <0>         0.1151
     46 H15         1.3279    2.6137   -0.8659 H         1 <0>         0.1133
     47 H16         1.3320    2.5986    0.9140 H         1 <0>         0.1130
     48 H17        -1.2048    2.8337    0.0917 H         1 <0>         0.4181
     49 H18        -1.6756   -0.5259    1.0352 H         1 <0>         0.1591
     50 H19        -3.7884   -1.7742    0.8504 H         1 <0>         0.1458
     51 H20        -5.4887    1.4201   -1.4110 H         1 <0>         0.1499
@<TRIPOS>BOND
     1    1    2 1
     2    1   32 1
     3    1   33 1
     4    1   34 1
     5    2    7 ar
     6    2    3 ar
     7    3    4 ar
     8    3   35 1
     9    4    5 ar
    10    4   36 1
    11    5    6 ar
    12    5   37 1
    13    6    7 ar
    14    6   38 1
    15    7    8 1
    16    8    9 1
    17    9   10 1
    18    9   39 1
    19    9   40 1
    20   10   11 2
    21   10   12 am
    22   12   13 1
    23   12   41 1
    24   13   14 2
    25   13   15 1
    26   15   16 1
    27   15   42 1
    28   16   17 am
    29   16   43 1
    30   17   18 2
    31   17   19 1
    32   19   20 1
    33   19   44 1
    34   19   45 1
    35   20   21 1
    36   20   46 1
    37   20   47 1
    38   21   22 2
    39   21   23 am
    40   23   24 1
    41   23   48 1
    42   24   29 ar
    43   24   25 ar
    44   25   26 ar
    45   25   49 1
    46   26   27 ar
    47   26   50 1
    48   27   28 ar
    49   27   31 1
    50   28   29 ar
    51   28   51 1
    52   29   30 1
@<TRIPOS>MOLECULE
ZINC14029755
   67    69     0     0     0
SMALL
USER_CHARGES
N-[[[4-[(2-methylbenzoyl)amino]benzoyl]amino]carbamothioyl]-4-pentoxy-benzamide
@<TRIPOS>ATOM
      1 C1          1.0614   14.4181    0.1244 C.3       1 <0>        -0.1546
      2 C2          2.4216   13.7185    0.1583 C.3       1 <0>        -0.1249
      3 C3          2.2151   12.2026    0.1784 C.3       1 <0>        -0.1170
      4 C4          3.5753   11.5030    0.2123 C.3       1 <0>        -0.1214
      5 C5          3.3688    9.9871    0.2325 C.3       1 <0>         0.0559
      6 O1          4.6393    9.3337    0.2641 O.3       1 <0>        -0.3073
      7 C6          4.6338    7.9768    0.2852 C.ar      1 <0>         0.1671
      8 C7          5.8358    7.2793    0.3164 C.ar      1 <0>        -0.1559
      9 C8          5.8347    5.9026    0.3374 C.ar      1 <0>        -0.0084
     10 C9          4.6227    5.2064    0.3278 C.ar      1 <0>        -0.1797
     11 C10         3.4164    5.9116    0.2910 C.ar      1 <0>        -0.0472
     12 C11         3.4262    7.2883    0.2760 C.ar      1 <0>        -0.2156
     13 C12         4.6168    3.7314    0.3502 C.2       1 <0>         0.5414
     14 O2          5.6669    3.1197    0.3772 O.2       1 <0>        -0.4017
     15 N1          3.4470    3.0620    0.3409 N.am      1 <0>        -0.6452
     16 C13         3.4416    1.7144    0.3615 C.2       1 <0>         0.5162
     17 S1          4.9206    0.8529    0.3994 S.2       1 <0>        -0.4550
     18 N2          2.2719    1.0449    0.3522 N.pl3     1 <0>        -0.4554
     19 N3          1.0616    1.7499    0.3212 N.am      1 <0>        -0.5516
     20 C14        -0.1081    1.0805    0.3119 C.2       1 <0>         0.5719
     21 O3         -0.1130   -0.1352    0.3304 O.2       1 <0>        -0.5113
     22 C15        -1.3830    1.8230    0.2730 C.ar      1 <0>        -0.1518
     23 C16        -1.3793    3.2205    0.2576 C.ar      1 <0>        -0.0651
     24 C17        -2.5700    3.9100    0.2156 C.ar      1 <0>        -0.1504
     25 C18        -3.7768    3.2173    0.2007 C.ar      1 <0>         0.1848
     26 C19        -3.7841    1.8259    0.2218 C.ar      1 <0>        -0.1262
     27 C20        -2.5967    1.1303    0.2575 C.ar      1 <0>        -0.0264
     28 N4         -4.9805    3.9184    0.1641 N.am      1 <0>        -0.6723
     29 C21        -6.0265    3.4257   -0.5284 C.2       1 <0>         0.5638
     30 O4         -5.9500    2.3287   -1.0464 O.2       1 <0>        -0.5023
     31 C22        -7.2668    4.2192   -0.6580 C.ar      1 <0>        -0.1501
     32 C23        -7.3288    5.5131   -0.1373 C.ar      1 <0>        -0.0802
     33 C24        -8.4880    6.2497   -0.2651 C.ar      1 <0>        -0.1346
     34 C25        -9.5909    5.7055   -0.8996 C.ar      1 <0>        -0.0809
     35 C26        -9.5376    4.4222   -1.4135 C.ar      1 <0>        -0.1307
     36 C27        -8.3829    3.6762   -1.2964 C.ar      1 <0>        -0.0138
     37 C28        -8.3270    2.2781   -1.8560 C.3       1 <0>        -0.1337
     38 H1          0.4882   14.1413    1.0092 H         1 <0>         0.0541
     39 H2          1.2085   15.4981    0.1100 H         1 <0>         0.0562
     40 H3          0.5183   14.1135   -0.7703 H         1 <0>         0.0542
     41 H4          2.9647   14.0231    1.0529 H         1 <0>         0.0640
     42 H5          2.9947   13.9954   -0.7266 H         1 <0>         0.0640
     43 H6          1.6720   11.8980   -0.7162 H         1 <0>         0.0654
     44 H7          1.6420   11.9258    1.0633 H         1 <0>         0.0654
     45 H8          4.1184   11.8076    1.1069 H         1 <0>         0.0761
     46 H9          4.1484   11.7799   -0.6726 H         1 <0>         0.0762
     47 H10         2.8257    9.6825   -0.6622 H         1 <0>         0.0660
     48 H11         2.7957    9.7103    1.1173 H         1 <0>         0.0659
     49 H12         6.7718    7.8179    0.3238 H         1 <0>         0.1441
     50 H13         6.7690    5.3614    0.3616 H         1 <0>         0.1501
     51 H14         2.4779    5.3773    0.2787 H         1 <0>         0.1206
     52 H15         2.4945    7.8340    0.2525 H         1 <0>         0.1371
     53 H16         2.6091    3.5500    0.3195 H         1 <0>         0.3987
     54 H17         2.2680    0.0751    0.3670 H         1 <0>         0.4591
     55 H18         1.0655    2.7198    0.3064 H         1 <0>         0.4161
     56 H19        -0.4431    3.7588    0.2736 H         1 <0>         0.1247
     57 H20        -2.5677    4.9899    0.1987 H         1 <0>         0.1374
     58 H21        -4.7224    1.2912    0.2098 H         1 <0>         0.1525
     59 H22        -2.6031    0.0504    0.2732 H         1 <0>         0.1458
     60 H23        -5.0656    4.7610    0.6369 H         1 <0>         0.4139
     61 H24        -6.4702    5.9375    0.3617 H         1 <0>         0.1251
     62 H25        -8.5363    7.2520    0.1343 H         1 <0>         0.1314
     63 H26       -10.4973    6.2851   -0.9936 H         1 <0>         0.1308
     64 H27       -10.4020    4.0033   -1.9073 H         1 <0>         0.1328
     65 H28        -8.5182    1.5597   -1.0588 H         1 <0>         0.0763
     66 H29        -9.0827    2.1675   -2.6337 H         1 <0>         0.0624
     67 H30        -7.3397    2.0957   -2.2803 H         1 <0>         0.1031
@<TRIPOS>BOND
     1    1    2 1
     2    1   38 1
     3    1   39 1
     4    1   40 1
     5    2    3 1
     6    2   41 1
     7    2   42 1
     8    3    4 1
     9    3   43 1
    10    3   44 1
    11    4    5 1
    12    4   45 1
    13    4   46 1
    14    5    6 1
    15    5   47 1
    16    5   48 1
    17    6    7 1
    18    7   12 ar
    19    7    8 ar
    20    8    9 ar
    21    8   49 1
    22    9   10 ar
    23    9   50 1
    24   10   11 ar
    25   10   13 1
    26   11   12 ar
    27   11   51 1
    28   12   52 1
    29   13   14 2
    30   13   15 am
    31   15   16 1
    32   15   53 1
    33   16   17 2
    34   16   18 1
    35   18   19 1
    36   18   54 1
    37   19   20 am
    38   19   55 1
    39   20   21 2
    40   20   22 1
    41   22   27 ar
    42   22   23 ar
    43   23   24 ar
    44   23   56 1
    45   24   25 ar
    46   24   57 1
    47   25   26 ar
    48   25   28 1
    49   26   27 ar
    50   26   58 1
    51   27   59 1
    52   28   29 am
    53   28   60 1
    54   29   30 2
    55   29   31 1
    56   31   36 ar
    57   31   32 ar
    58   32   33 ar
    59   32   61 1
    60   33   34 ar
    61   33   62 1
    62   34   35 ar
    63   34   63 1
    64   35   36 ar
    65   35   64 1
    66   36   37 1
    67   37   65 1
    68   37   66 1
    69   37   67 1
@<TRIPOS>MOLECULE
ZINC02793915
   63    66     0     0     0
SMALL
USER_CHARGES
3-[[(5S,7S)-5-(4-isopropylphenyl)-7-(trifluoromethyl)4,5,6,7-tetrahydropyrazolo[1,5-a]pyrimidine-2-carbonyl]amino]-1-(p-tolyl)thiourea
@<TRIPOS>ATOM
      1 C1         -8.4852   11.8257   -6.9992 C.3       1 <0>        -0.1195
      2 C2         -8.0677   10.9413   -5.8527 C.ar      1 <0>        -0.0764
      3 C3         -7.2949   11.4577   -4.8289 C.ar      1 <0>        -0.1144
      4 C4         -6.9110   10.6499   -3.7765 C.ar      1 <0>        -0.0655
      5 C5         -7.3017    9.3175   -3.7474 C.ar      1 <0>         0.1157
      6 C6         -8.0727    8.8004   -4.7803 C.ar      1 <0>        -0.1158
      7 C7         -8.4588    9.6152   -5.8265 C.ar      1 <0>        -0.1185
      8 N1         -6.9146    8.4967   -2.6828 N.pl3     1 <0>        -0.6418
      9 C8         -7.0243    8.9407   -1.4150 C.2       1 <0>         0.5638
     10 S1         -7.5330   10.5469   -1.1116 S.2       1 <0>        -0.5834
     11 N2         -6.7334    8.1202   -0.3861 N.pl3     1 <0>        -0.4727
     12 N3         -6.3171    6.8057   -0.6344 N.am      1 <0>        -0.5468
     13 C9         -6.0262    5.9853    0.3945 C.2       1 <0>         0.6156
     14 O1         -6.1251    6.3858    1.5381 O.2       1 <0>        -0.5075
     15 C10        -5.5872    4.5992    0.1327 C.2       1 <0>         0.0722
     16 C11        -5.2519    3.6366    1.1117 C.2       1 <0>        -0.2663
     17 C12        -4.9046    2.5050    0.4677 C.2       1 <0>         0.3821
     18 N4         -5.0138    2.7293   -0.8756 N.pl3     1 <0>        -0.3921
     19 N5         -5.4403    4.0442   -1.0575 N.2       1 <0>        -0.2617
     20 C13        -4.7195    1.7185   -1.8952 C.3       1 <0>         0.1273
     21 H1         -3.7192    1.9362   -2.2976 H         1 <0>         0.1382
     22 C14        -4.7615    0.3310   -1.2449 C.3       1 <0>        -0.1484
     23 C15        -3.9062    0.3245    0.0268 C.3       1 <0>         0.1970
     24 H2         -3.8826   -0.6724    0.4911 H         1 <0>         0.1213
     25 N6         -4.4916    1.2766    0.9912 N.pl3     1 <0>        -0.7341
     26 C16        -2.4982    0.7446   -0.3080 C.ar      1 <0>        -0.1252
     27 C17        -1.5102   -0.2100   -0.4616 C.ar      1 <0>        -0.0996
     28 C18        -0.2199    0.1750   -0.7743 C.ar      1 <0>        -0.1154
     29 C19         0.0836    1.5148   -0.9282 C.ar      1 <0>        -0.0647
     30 C20        -0.9032    2.4697   -0.7689 C.ar      1 <0>        -0.1105
     31 C21        -2.1935    2.0848   -0.4562 C.ar      1 <0>        -0.1130
     32 C22         1.4903    1.9345   -1.2691 C.3       1 <0>        -0.0605
     33 C23         1.4889    2.6895   -2.5999 C.3       1 <0>        -0.1466
     34 C24         2.0320    2.8460   -0.1662 C.3       1 <0>        -0.1467
     35 C25        -5.7657    1.7943   -3.0090 C.3       1 <0>         0.4560
     36 F1         -7.0374    1.5714   -2.4703 F         1 <0>        -0.1719
     37 F2         -5.7256    3.0612   -3.6010 F         1 <0>        -0.1631
     38 F3         -5.4907    0.8196   -3.9743 F         1 <0>        -0.1705
     39 H3         -8.0830   12.8381   -6.8467 H         1 <0>         0.0672
     40 H4         -9.5833   11.8707   -7.0465 H         1 <0>         0.0712
     41 H5         -8.0941   11.4138   -7.9412 H         1 <0>         0.0704
     42 H6         -6.9914   12.4940   -4.8521 H         1 <0>         0.1276
     43 H7         -6.3080   11.0541   -2.9768 H         1 <0>         0.1474
     44 H8         -8.3744    7.7635   -4.7628 H         1 <0>         0.1228
     45 H9         -9.0627    9.2149   -6.6274 H         1 <0>         0.1262
     46 H10        -6.5207    7.4888   -2.8804 H         1 <0>         0.4179
     47 H11        -6.8228    8.4826    0.6486 H         1 <0>         0.4921
     48 H12        -6.2277    6.4433   -1.6691 H         1 <0>         0.4469
     49 H13        -5.2704    3.7817    2.1817 H         1 <0>         0.1649
     50 H14        -5.8002    0.0793   -0.9847 H         1 <0>         0.1044
     51 H15        -4.3688   -0.4164   -1.9499 H         1 <0>         0.1228
     52 H16        -4.5811    0.9998    2.0520 H         1 <0>         0.4561
     53 H17        -1.7473   -1.2568   -0.3417 H         1 <0>         0.1264
     54 H18         0.5511   -0.5711   -0.8987 H         1 <0>         0.1252
     55 H19        -0.6659    3.5165   -0.8885 H         1 <0>         0.1208
     56 H20        -2.9643    2.8308   -0.3315 H         1 <0>         0.1230
     57 H21         2.1163    1.0337   -1.3507 H         1 <0>         0.0799
     58 H22         2.5157    2.9958   -2.8487 H         1 <0>         0.0617
     59 H23         0.8506    3.5813   -2.5148 H         1 <0>         0.0567
     60 H24         1.0994    2.0341   -3.3929 H         1 <0>         0.0568
     61 H25         3.0588    3.1523   -0.4151 H         1 <0>         0.0615
     62 H26         2.0330    2.3032    0.7905 H         1 <0>         0.0569
     63 H27         1.3937    3.7378   -0.0811 H         1 <0>         0.0570
@<TRIPOS>BOND
     1    1    2 1
     2    1   39 1
     3    1   40 1
     4    1   41 1
     5    2    7 ar
     6    2    3 ar
     7    3    4 ar
     8    3   42 1
     9    4    5 ar
    10    4   43 1
    11    5    6 ar
    12    5    8 1
    13    6    7 ar
    14    6   44 1
    15    7   45 1
    16    8    9 1
    17    8   46 1
    18    9   10 2
    19    9   11 1
    20   11   12 1
    21   11   47 1
    22   12   13 am
    23   12   48 1
    24   13   14 2
    25   13   15 1
    26   15   19 2
    27   15   16 1
    28   16   17 2
    29   16   49 1
    30   17   25 1
    31   17   18 1
    32   18   19 1
    33   18   20 1
    34   20   21 1
    35   20   22 1
    36   20   35 1
    37   22   23 1
    38   22   50 1
    39   22   51 1
    40   23   24 1
    41   23   25 1
    42   23   26 1
    43   25   52 1
    44   26   31 ar
    45   26   27 ar
    46   27   28 ar
    47   27   53 1
    48   28   29 ar
    49   28   54 1
    50   29   30 ar
    51   29   32 1
    52   30   31 ar
    53   30   55 1
    54   31   56 1
    55   32   33 1
    56   32   34 1
    57   32   57 1
    58   33   58 1
    59   33   59 1
    60   33   60 1
    61   34   61 1
    62   34   62 1
    63   34   63 1
    64   35   36 1
    65   35   37 1
    66   35   38 1
@<TRIPOS>MOLECULE
ZINC39549776
   58    61     0     0     0
SMALL
USER_CHARGES

@<TRIPOS>ATOM
      1 C1         -0.0187    1.5258    0.0104 C.3       1 <0>        -0.1513
      2 C2          0.0021   -0.0041    0.0020 C.3       1 <0>        -0.1220
      3 C3          0.7182   -0.4975   -1.2568 C.3       1 <0>        -0.1443
      4 C4          0.7390   -2.0273   -1.2652 C.3       1 <0>         0.1482
      5 N1          1.4247   -2.4998   -2.4705 N.pl3     1 <0>        -0.6274
      6 C5          0.8312   -2.7721   -3.7109 C.ar      1 <0>         0.1905
      7 C6         -0.4942   -2.6758   -4.1178 C.ar      1 <0>        -0.1581
      8 C7         -0.8483   -3.0046   -5.4122 C.ar      1 <0>        -0.0131
      9 C8          0.1144   -3.4308   -6.3081 C.ar      1 <0>        -0.6806
     10 C9          1.4345   -3.5298   -5.9128 C.ar      1 <0>        -0.0352
     11 C10         1.8004   -3.2008   -4.6130 C.ar      1 <0>         0.1048
     12 N2          3.0549   -3.2208   -3.9878 N.pl3     1 <0>        -0.7477
     13 C11         2.8612   -2.7695   -2.6046 C.3       1 <0>         0.4080
     14 H1          3.1633   -3.5531   -1.9098 H         1 <0>         0.1006
     15 C12         3.6646   -1.4935   -2.3448 C.3       1 <0>        -0.1417
     16 S1          3.1845   -0.2217   -3.5458 S.3       1 <0>         0.0409
     17 C13         4.1838    1.1657   -3.1199 C.2       1 <0>         0.2574
     18 N3          5.0630    1.2137   -2.1431 N.2       1 <0>        -0.5344
     19 H2          3.6409    2.6241   -4.5036 H         1 <0>         0.4456
     20 C14         5.6371    2.4252   -2.1126 C.2       1 <0>         0.2868
     21 N4          5.1265    3.1620   -3.0732 N.2       1 <0>        -0.2992
     22 N5          4.1850    2.3647   -3.7436 N.pl3     1 <0>        -0.4617
     23 C15         6.6783    2.8626   -1.1505 C.ar      1 <0>        -0.0594
     24 C16         7.1429    1.9812   -0.1759 C.ar      1 <0>        -0.0339
     25 C17         8.1112    2.3904    0.7168 C.ar      1 <0>        -0.1566
     26 C18         8.6228    3.6791    0.6456 C.ar      1 <0>         0.1468
     27 C19         8.1619    4.5593   -0.3241 C.ar      1 <0>        -0.2126
     28 C20         7.1979    4.1539   -1.2231 C.ar      1 <0>        -0.0399
     29 O1          9.5760    4.0798    1.5270 O.3       1 <0>        -0.3142
     30 C21        10.0582    5.4187    1.3970 C.3       1 <0>         0.0244
     31 S2         -0.3432   -3.8493   -7.9574 S.o2      1 <0>         2.7043
     32 O2          0.6526   -4.7398   -8.4416 O.2       1 <0>        -0.9682
     33 O3         -1.7212   -4.1943   -7.9214 O.2       1 <0>        -0.9669
     34 N6         -0.2245   -2.4685   -8.8638 N.pl3     1 <0>        -1.2516
     35 H3          1.0039    1.9031    0.0027 H         1 <0>         0.0512
     36 H4         -0.5459    1.8868   -0.8726 H         1 <0>         0.0538
     37 H5         -0.5289    1.8773    0.9072 H         1 <0>         0.0556
     38 H6          0.5293   -0.3651    0.8851 H         1 <0>         0.0626
     39 H7         -1.0205   -0.3814    0.0098 H         1 <0>         0.0640
     40 H8          0.1910   -0.1364   -2.1398 H         1 <0>         0.0707
     41 H9          1.7408   -0.1202   -1.2645 H         1 <0>         0.0695
     42 H10         1.2661   -2.3884   -0.3821 H         1 <0>         0.0823
     43 H11        -0.2836   -2.4046   -1.2575 H         1 <0>         0.0841
     44 H12        -1.2491   -2.3435   -3.4206 H         1 <0>         0.1304
     45 H13        -1.8794   -2.9288   -5.7246 H         1 <0>         0.1433
     46 H14         2.1838   -3.8635   -6.6154 H         1 <0>         0.1396
     47 H15         3.8959   -3.4812   -4.3950 H         1 <0>         0.4313
     48 H16         3.4614   -1.1355   -1.3355 H         1 <0>         0.1101
     49 H17         4.7286   -1.7069   -2.4473 H         1 <0>         0.1099
     50 H18         6.7448    0.9788   -0.1196 H         1 <0>         0.1405
     51 H19         8.4716    1.7079    1.4722 H         1 <0>         0.1382
     52 H20         8.5615    5.5613   -0.3768 H         1 <0>         0.1352
     53 H21         6.8430    4.8376   -1.9800 H         1 <0>         0.1342
     54 H22        10.4984    5.5519    0.4088 H         1 <0>         0.0582
     55 H23         9.2306    6.1168    1.5232 H         1 <0>         0.0582
     56 H24        10.8133    5.6086    2.1597 H         1 <0>         0.1031
     57 H25         0.0572   -1.6384   -8.4485 H         1 <0>         0.4162
     58 H26        -0.4368   -2.4897   -9.8101 H         1 <0>         0.4195
@<TRIPOS>BOND
     1    1    2 1
     2    1   35 1
     3    1   36 1
     4    1   37 1
     5    2    3 1
     6    2   38 1
     7    2   39 1
     8    3    4 1
     9    3   40 1
    10    3   41 1
    11    4    5 1
    12    4   42 1
    13    4   43 1
    14    5   13 1
    15    5    6 1
    16    6   11 ar
    17    6    7 ar
    18    7    8 ar
    19    7   44 1
    20    8    9 ar
    21    8   45 1
    22    9   10 ar
    23    9   31 1
    24   10   11 ar
    25   10   46 1
    26   11   12 1
    27   12   13 1
    28   12   47 1
    29   13   14 1
    30   13   15 1
    31   15   48 1
    32   15   49 1
    33   15   16 1
    34   16   17 1
    35   17   18 2
    36   17   22 1
    37   18   20 1
    38   19   22 1
    39   20   23 1
    40   20   21 2
    41   21   22 1
    42   23   28 ar
    43   23   24 ar
    44   24   25 ar
    45   24   50 1
    46   25   26 ar
    47   25   51 1
    48   26   27 ar
    49   26   29 1
    50   27   28 ar
    51   27   52 1
    52   28   53 1
    53   29   30 1
    54   30   54 1
    55   30   55 1
    56   30   56 1
    57   31   32 2
    58   31   33 2
    59   31   34 1
    60   34   57 1
    61   34   58 1
@<TRIPOS>MOLECULE
ZINC01698491
   64    68     0     0     0
SMALL
USER_CHARGES
N,N'-bis[4-(4,5-dihydro-1H-imidazol-2-yl)phenyl]-2-methylsulfanyl-terephthalamide
@<TRIPOS>ATOM
      1 C1         -4.3499   -1.0776   -0.6831 C.3       1 <0>        -0.1996
      2 S1         -2.6157   -0.5650   -0.5410 S.3       1 <0>         0.0168
      3 C2         -2.7042    1.1804   -0.3165 C.ar      1 <0>        -0.0434
      4 C3         -3.9386    1.8171   -0.2816 C.ar      1 <0>        -0.0772
      5 C4         -4.0032    3.1966   -0.1093 C.ar      1 <0>        -0.0857
      6 C5         -2.8289    3.9419    0.0336 C.ar      1 <0>        -0.1066
      7 C6         -1.6039    3.3167    0.0053 C.ar      1 <0>        -0.0627
      8 C7         -1.5278    1.9319   -0.1672 C.ar      1 <0>        -0.1116
      9 C8         -0.2138    1.2620   -0.1985 C.2       1 <0>         0.5579
     10 O1         -0.1491    0.0572   -0.3487 O.2       1 <0>        -0.4703
     11 N1          0.9151    1.9863   -0.0662 N.am      1 <0>        -0.6706
     12 C9          2.1514    1.3441    0.0051 C.ar      1 <0>         0.2208
     13 C10         2.2539    0.1023    0.6233 C.ar      1 <0>        -0.1242
     14 C11         3.4726   -0.5362    0.6909 C.ar      1 <0>        -0.0292
     15 C12         4.6073    0.0691    0.1481 C.ar      1 <0>        -0.1587
     16 C13         4.5025    1.3179   -0.4670 C.ar      1 <0>        -0.0347
     17 C14         3.2803    1.9493   -0.5369 C.ar      1 <0>        -0.1455
     18 C15         5.9183   -0.6116    0.2242 C.cat     1 <0>         0.5691
     19 C16         8.1351   -1.0107   -0.0302 C.3       1 <0>         0.0566
     20 C17         7.5088   -2.2093    0.7098 C.3       1 <0>         0.0686
     21 N2          6.0889   -1.8354    0.8191 N.pl3     1 <0>        -0.6683
     22 C18        -5.3177    3.8762   -0.0778 C.2       1 <0>         0.5649
     23 O2         -6.3392    3.2296   -0.2020 O.2       1 <0>        -0.4954
     24 N3         -5.3819    5.2121    0.0885 N.am      1 <0>        -0.6701
     25 C19        -6.6208    5.8405    0.2152 C.ar      1 <0>         0.2140
     26 C20        -7.7117    5.3775   -0.5130 C.ar      1 <0>        -0.1230
     27 C21        -8.9373    5.9931   -0.3861 C.ar      1 <0>        -0.0316
     28 C22        -9.0814    7.0895    0.4658 C.ar      1 <0>        -0.1555
     29 C23        -7.9836    7.5554    1.1914 C.ar      1 <0>        -0.0368
     30 C24        -6.7616    6.9325    1.0651 C.ar      1 <0>        -0.1421
     31 C25       -10.3950    7.7562    0.5998 C.cat     1 <0>         0.5686
     32 C26       -11.9911    9.2104    1.2896 C.3       1 <0>         0.0565
     33 C27       -12.6303    8.2293    0.2869 C.3       1 <0>         0.0685
     34 N4        -11.5097    7.3510   -0.0886 N.pl3     1 <0>        -0.6678
     35 H1         -4.8082   -0.5766   -1.5358 H         1 <0>         0.0869
     36 H2         -4.3991   -2.1570   -0.8265 H         1 <0>         0.1174
     37 H3         -4.8845   -0.8073    0.2275 H         1 <0>         0.0867
     38 H4         -4.8466    1.2428   -0.3923 H         1 <0>         0.1515
     39 H5         -2.8838    5.0123    0.1671 H         1 <0>         0.1385
     40 H6         -0.6997    3.8967    0.1161 H         1 <0>         0.1411
     41 H7          0.8680    2.9540   -0.0207 H         1 <0>         0.4196
     42 H8          1.3765   -0.3635    1.0470 H         1 <0>         0.1575
     43 H9          3.5509   -1.5021    1.1676 H         1 <0>         0.1404
     44 H10         5.3789    1.7886   -0.8874 H         1 <0>         0.1399
     45 H11         3.1987    2.9154   -1.0127 H         1 <0>         0.1507
     46 H12         8.5665   -1.3305   -0.9787 H         1 <0>         0.1273
     47 H13         8.8907   -0.5305    0.5915 H         1 <0>         0.1273
     48 H14         7.6256   -3.1238    0.1282 H         1 <0>         0.1221
     49 H15         7.9522   -2.3249    1.6988 H         1 <0>         0.1220
     50 H16         5.3927   -2.3651    1.2383 H         1 <0>         0.4551
     51 H17        -4.5665    5.7366    0.1201 H         1 <0>         0.4215
     52 H18        -7.5986    4.5320   -1.1754 H         1 <0>         0.1601
     53 H19        -9.7849    5.6309   -0.9489 H         1 <0>         0.1408
     54 H20        -8.0922    8.4037    1.8510 H         1 <0>         0.1406
     55 H21        -5.9120    7.2925    1.6263 H         1 <0>         0.1514
     56 H22       -12.4740    9.1297    2.2635 H         1 <0>         0.1276
     57 H23       -12.0519   10.2324    0.9156 H         1 <0>         0.1278
     58 H24       -13.4281    7.6588    0.7624 H         1 <0>         0.1224
     59 H25       -13.0082    8.7628   -0.5853 H         1 <0>         0.1224
     60 H26       -11.5531    6.6109   -0.7141 H         1 <0>         0.4552
     61 N5          7.0037   -0.0980   -0.2616 N.pl3     1 <0>        -0.6249
     62 H27         7.0656    0.8100   -0.7369 H         1 <0>         0.4719
     63 N6        -10.5872    8.7765    1.3743 N.pl3     1 <0>        -0.6242
     64 H28        -9.8677    9.2167    1.9598 H         1 <0>         0.4720
@<TRIPOS>BOND
     1    1    2 1
     2    1   35 1
     3    1   36 1
     4    1   37 1
     5    2    3 1
     6    3    8 ar
     7    3    4 ar
     8    4    5 ar
     9    4   38 1
    10    5    6 ar
    11    5   22 1
    12    6    7 ar
    13    6   39 1
    14    7    8 ar
    15    7   40 1
    16    8    9 1
    17    9   10 2
    18    9   11 am
    19   11   12 1
    20   11   41 1
    21   12   17 ar
    22   12   13 ar
    23   13   14 ar
    24   13   42 1
    25   14   15 ar
    26   14   43 1
    27   15   16 ar
    28   15   18 1
    29   16   17 ar
    30   16   44 1
    31   17   45 1
    32   18   21 1
    33   18   61 2
    34   19   20 1
    35   19   46 1
    36   19   47 1
    37   19   61 1
    38   20   21 1
    39   20   48 1
    40   20   49 1
    41   21   50 1
    42   22   23 2
    43   22   24 am
    44   24   25 1
    45   24   51 1
    46   25   30 ar
    47   25   26 ar
    48   26   27 ar
    49   26   52 1
    50   27   28 ar
    51   27   53 1
    52   28   29 ar
    53   28   31 1
    54   29   30 ar
    55   29   54 1
    56   30   55 1
    57   31   34 1
    58   31   63 2
    59   32   33 1
    60   32   56 1
    61   32   57 1
    62   32   63 1
    63   33   34 1
    64   33   58 1
    65   33   59 1
    66   34   60 1
    67   61   62 1
    68   63   64 1
@<TRIPOS>MOLECULE
ZINC12338947
   67    69     0     0     0
SMALL
USER_CHARGES
(2R)-1-[[1-[(2S)-3-(3,4-dichlorophenoxy)-2-hydroxy-propyl]-4-piperidyl]amino]-3-(4-methoxyphenoxy)propan-2-ol
@<TRIPOS>ATOM
      1 C1        -12.1881   -1.6143    8.6626 C.3       1 <0>         0.0251
      2 O1        -11.7806   -0.3964    9.2894 O.3       1 <0>        -0.3117
      3 C2        -10.6622    0.2044    8.8024 C.ar      1 <0>         0.1102
      4 C3        -10.2108    1.3893    9.3645 C.ar      1 <0>        -0.1085
      5 C4         -9.0747    1.9997    8.8698 C.ar      1 <0>        -0.0982
      6 C5         -8.3848    1.4272    7.8114 C.ar      1 <0>         0.0735
      7 C6         -8.8390    0.2449    7.2461 C.ar      1 <0>        -0.1663
      8 C7         -9.9726   -0.3678    7.7437 C.ar      1 <0>        -0.1730
      9 O2         -7.2664    2.0280    7.3244 O.3       1 <0>        -0.3014
     10 C8         -6.6062    1.3831    6.2334 C.3       1 <0>         0.0306
     11 C9         -5.3786    2.2000    5.8253 C.3       1 <0>         0.0847
     12 H1         -4.7373    2.3505    6.6937 H         1 <0>         0.1377
     13 C10        -4.6024    1.4478    4.7424 C.3       1 <0>        -0.0404
     14 C11        -2.5891    1.4783    3.3977 C.3       1 <0>         0.0172
     15 C12        -1.1088    1.8470    3.5291 C.3       1 <0>        -0.1723
     16 C13        -0.3178    1.1690    2.4081 C.3       1 <0>        -0.0032
     17 C14        -2.2435    1.2233    0.9381 C.3       1 <0>         0.0036
     18 C15        -3.0921    1.9029    2.0152 C.3       1 <0>        -0.1720
     19 C16        -0.0127    1.0858    0.0080 C.3       1 <0>        -0.0404
     20 C17         1.3813    1.7130    0.0730 C.3       1 <0>         0.0844
     21 H2          1.8520    1.4549    1.0217 H         1 <0>         0.1359
     22 C18         2.2340    1.1815   -1.0807 C.3       1 <0>         0.0259
     23 O3          3.5688    1.6759   -0.9537 O.3       1 <0>        -0.2959
     24 C19         4.4611    1.2950   -1.9056 C.ar      1 <0>         0.1327
     25 C20         4.0612    0.4578   -2.9372 C.ar      1 <0>        -0.1938
     26 C21         4.9676    0.0760   -3.9072 C.ar      1 <0>        -0.0559
     27 C22         6.2770    0.5186   -3.8446 C.ar      1 <0>        -0.0605
     28 C23         6.6800    1.3495   -2.8129 C.ar      1 <0>         0.0076
     29 C24         5.7738    1.7381   -1.8435 C.ar      1 <0>        -0.1251
     30 Cl1         8.3233    1.9039   -2.7368 Cl        1 <0>        -0.0198
     31 Cl2         7.4158    0.0319   -5.0612 Cl        1 <0>        -0.0291
     32 O4          1.2698    3.1338   -0.0323 O.3       1 <0>        -0.5436
     33 O5         -5.7977    3.4681    5.3172 O.3       1 <0>        -0.5406
     34 H3        -13.0910   -1.9873    9.1460 H         1 <0>         0.1076
     35 H4        -12.3906   -1.4298    7.6076 H         1 <0>         0.0566
     36 H5        -11.3936   -2.3546    8.7561 H         1 <0>         0.0566
     37 H6        -10.7477    1.8349   10.1889 H         1 <0>         0.1463
     38 H7         -8.7234    2.9225    9.3073 H         1 <0>         0.1420
     39 H8         -8.3043   -0.1986    6.4191 H         1 <0>         0.1237
     40 H9        -10.3239   -1.2906    7.3062 H         1 <0>         0.1349
     41 H10        -7.2901    1.3080    5.3880 H         1 <0>         0.0747
     42 H11        -6.2933    0.3842    6.5374 H         1 <0>         0.0792
     43 H12        -5.2127    1.3751    3.8422 H         1 <0>         0.1409
     44 H13        -4.3596    0.4467    5.0985 H         1 <0>         0.1506
     45 H14        -2.7078    0.4009    3.5133 H         1 <0>         0.1573
     46 H15        -0.7339    1.5088    4.4951 H         1 <0>         0.1401
     47 H16        -0.9950    2.9283    3.4522 H         1 <0>         0.1165
     48 H17        -0.4209    0.0873    2.4939 H         1 <0>         0.1460
     49 H18         0.7345    1.4410    2.4903 H         1 <0>         0.1520
     50 H19        -2.5899    1.5347   -0.0473 H         1 <0>         0.1511
     51 H20        -2.3376    0.1413    1.0307 H         1 <0>         0.1452
     52 H21        -4.1341    1.6046    1.8995 H         1 <0>         0.1361
     53 H22        -3.0094    2.9851    1.9145 H         1 <0>         0.1157
     54 H23        -0.4787    1.3341   -0.9455 H         1 <0>         0.1456
     55 H24         0.0714    0.0030    0.1002 H         1 <0>         0.1528
     56 H25         2.2459    0.0919   -1.0518 H         1 <0>         0.0858
     57 H26         1.8116    1.5152   -2.0285 H         1 <0>         0.0818
     58 H27         3.0403    0.1084   -2.9843 H         1 <0>         0.1384
     59 H28         4.6551   -0.5723   -4.7124 H         1 <0>         0.1511
     60 H29         6.0880    2.3859   -1.0386 H         1 <0>         0.1535
     61 H30         0.8588    3.4362   -0.8537 H         1 <0>         0.3940
     62 H31        -6.3728    3.4106    4.5419 H         1 <0>         0.3906
     63 N1         -3.3591    2.1820    4.4406 N.4       1 <0>        -0.5118
     64 H32        -2.7908    2.2504    5.2930 H         1 <0>         0.4437
     65 H33        -3.5945    3.1250    4.1096 H         1 <0>         0.4421
     66 N2         -0.8342    1.6382    1.1048 N.4       1 <0>        -0.3952
     67 H34        -0.7832    2.6632    1.0759 H         1 <0>         0.4369
@<TRIPOS>BOND
     1    1    2 1
     2    1   34 1
     3    1   35 1
     4    1   36 1
     5    2    3 1
     6    3    8 ar
     7    3    4 ar
     8    4    5 ar
     9    4   37 1
    10    5    6 ar
    11    5   38 1
    12    6    7 ar
    13    6    9 1
    14    7    8 ar
    15    7   39 1
    16    8   40 1
    17    9   10 1
    18   10   11 1
    19   10   41 1
    20   10   42 1
    21   11   12 1
    22   11   13 1
    23   11   33 1
    24   13   43 1
    25   13   44 1
    26   13   63 1
    27   14   18 1
    28   14   15 1
    29   14   45 1
    30   14   63 1
    31   15   16 1
    32   15   46 1
    33   15   47 1
    34   16   48 1
    35   16   49 1
    36   16   66 1
    37   17   18 1
    38   17   50 1
    39   17   51 1
    40   17   66 1
    41   18   52 1
    42   18   53 1
    43   19   20 1
    44   19   54 1
    45   19   55 1
    46   19   66 1
    47   20   21 1
    48   20   22 1
    49   20   32 1
    50   22   23 1
    51   22   56 1
    52   22   57 1
    53   23   24 1
    54   24   29 ar
    55   24   25 ar
    56   25   26 ar
    57   25   58 1
    58   26   27 ar
    59   26   59 1
    60   27   28 ar
    61   27   31 1
    62   28   29 ar
    63   28   30 1
    64   29   60 1
    65   32   61 1
    66   33   62 1
    67   63   64 1
    68   63   65 1
    69   66   67 1
@<TRIPOS>MOLECULE
ZINC08636150
   68    73     0     0     0
SMALL
USER_CHARGES
methyl (2R,4S,6S,12bR)-4-(3-chlorophenyl)-2-[2-(1H-imidazol-4-yl)ethylamino]-1,2,3,4,6,7,12,12b-octahydroquinolizino[1,2-b]indole-6-carboxylate
@<TRIPOS>ATOM
      1 C1         -3.0102    4.7010    4.2696 C.3       1 <0>         0.0328
      2 O1         -3.2342    3.2970    3.9750 O.3       1 <0>        -0.3174
      3 C2         -2.6106    2.7933    2.8983 C.2       1 <0>         0.4881
      4 O2         -1.9012    3.5021    2.2244 O.2       1 <0>        -0.5225
      5 C3         -2.7953    1.3437    2.5301 C.3       1 <0>         0.0320
      6 H1         -3.8054    1.1912    2.1499 H         1 <0>         0.1889
      7 C4         -2.5788    0.4684    3.7726 C.3       1 <0>        -0.0667
      8 C5         -1.1076    0.4775    4.1035 C.2       1 <0>        -0.1418
      9 C6         -0.4405    0.0760    5.3218 C.ar      1 <0>        -0.0995
     10 C7         -0.9076   -0.4282    6.5397 C.ar      1 <0>        -0.0617
     11 C8          0.0339   -0.7053    7.4996 C.ar      1 <0>        -0.1277
     12 C9          1.3868   -0.4996    7.2846 C.ar      1 <0>        -0.0694
     13 C10         1.8772   -0.0021    6.0899 C.ar      1 <0>        -0.1290
     14 C11         0.9447    0.2884    5.0964 C.ar      1 <0>         0.1189
     15 N1          1.0806    0.7814    3.8299 N.pl3     1 <0>        -0.5600
     16 H2          1.9229    1.0160    3.4099 H         1 <0>         0.4216
     17 C12        -0.1499    0.8938    3.2426 C.2       1 <0>        -0.0030
     18 C13        -0.4589    1.3956    1.8561 C.3       1 <0>         0.0825
     19 H3         -0.3953    2.4835    1.8324 H         1 <0>         0.1721
     20 C14        -2.2037    1.4944    0.1782 C.3       1 <0>         0.0724
     21 H4         -2.1266    2.5817    0.1801 H         1 <0>         0.1516
     22 C15        -1.2643    0.9173   -0.8843 C.3       1 <0>        -0.1619
     23 C16         0.1794    1.3037   -0.5530 C.3       1 <0>         0.0249
     24 H5          0.8531    0.8502   -1.2799 H         1 <0>         0.1805
     25 C17         0.5302    0.8024    0.8514 C.3       1 <0>        -0.1693
     26 C18         0.5796    3.2248   -1.9715 C.3       1 <0>        -0.0032
     27 C19         0.7188    4.7484   -1.9808 C.3       1 <0>        -0.0483
     28 C20         0.9860    5.2198   -3.3870 C.2       1 <0>        -0.0362
     29 C21         0.2696    6.1377   -4.0636 C.2       1 <0>        -0.0230
     30 N2          0.8528    6.2662   -5.2953 N.pl3     1 <0>        -0.5636
     31 H6          0.5546    6.8722   -6.0328 H         1 <0>         0.4396
     32 C22         1.9061    5.4217   -5.3285 C.2       1 <0>         0.2112
     33 N3          1.9826    4.8029   -4.1820 N.2       1 <0>        -0.4953
     34 C23        -3.6221    1.0904   -0.1315 C.ar      1 <0>        -0.1471
     35 C24        -4.4745    1.9828   -0.7549 C.ar      1 <0>        -0.0815
     36 C25        -5.7756    1.6130   -1.0392 C.ar      1 <0>        -0.0831
     37 C26        -6.2254    0.3505   -0.7004 C.ar      1 <0>        -0.0705
     38 C27        -5.3730   -0.5427   -0.0766 C.ar      1 <0>        -0.0208
     39 C28        -4.0689   -0.1739    0.2027 C.ar      1 <0>        -0.1206
     40 Cl1        -5.9372   -2.1282    0.3497 Cl        1 <0>        -0.0237
     41 H7         -3.3446    5.3068    3.4274 H         1 <0>         0.0790
     42 H8         -3.5708    4.9789    5.1622 H         1 <0>         0.1258
     43 H9         -1.9473    4.8714    4.4404 H         1 <0>         0.0769
     44 H10        -3.1468    0.8724    4.6107 H         1 <0>         0.1435
     45 H11        -2.9029   -0.5514    3.5653 H         1 <0>         0.1243
     46 H12        -1.9603   -0.5922    6.7168 H         1 <0>         0.1395
     47 H13        -0.2905   -1.0965    8.4526 H         1 <0>         0.1341
     48 H14         2.0826   -0.7354    8.0762 H         1 <0>         0.1370
     49 H15         2.9346    0.1537    5.9347 H         1 <0>         0.1391
     50 H16        -1.5322    1.3173   -1.8621 H         1 <0>         0.1460
     51 H17        -1.3555   -0.1688   -0.8986 H         1 <0>         0.1439
     52 H18         0.4673   -0.2855    0.8765 H         1 <0>         0.1454
     53 H19         1.5424    1.1151    1.1080 H         1 <0>         0.1388
     54 H20         1.5020    2.7734   -2.3368 H         1 <0>         0.1490
     55 H21        -0.2487    2.9317   -2.6165 H         1 <0>         0.1348
     56 H22        -0.2037    5.1998   -1.6154 H         1 <0>         0.0956
     57 H23         1.5471    5.0416   -1.3358 H         1 <0>         0.0981
     58 H24        -0.5982    6.6704   -3.7035 H         1 <0>         0.1797
     59 H25         2.5766    5.2842   -6.1639 H         1 <0>         0.2167
     60 H26        -4.1237    2.9694   -1.0195 H         1 <0>         0.1410
     61 H27        -6.4409    2.3104   -1.5266 H         1 <0>         0.1541
     62 H28        -7.2419    0.0616   -0.9229 H         1 <0>         0.1550
     63 H29        -3.4017   -0.8724    0.6857 H         1 <0>         0.1325
     64 N4         -1.8180    0.9355    1.4910 N.4       1 <0>        -0.3759
     65 H30        -1.8141   -0.0892    1.4262 H         1 <0>         0.4434
     66 N5          0.3183    2.7718   -0.5922 N.4       1 <0>        -0.5291
     67 H31         1.0999    3.0542    0.0109 H         1 <0>         0.4389
     68 H32        -0.5493    3.2032   -0.2526 H         1 <0>         0.4225
@<TRIPOS>BOND
     1    1    2 1
     2    1   41 1
     3    1   42 1
     4    1   43 1
     5    2    3 1
     6    3    4 2
     7    3    5 1
     8    5    6 1
     9    5    7 1
    10    5   64 1
    11    7    8 1
    12    7   44 1
    13    7   45 1
    14    8   17 2
    15    8    9 1
    16    9   14 ar
    17    9   10 ar
    18   10   11 ar
    19   10   46 1
    20   11   12 ar
    21   11   47 1
    22   12   13 ar
    23   12   48 1
    24   13   14 ar
    25   13   49 1
    26   14   15 1
    27   15   16 1
    28   15   17 1
    29   17   18 1
    30   18   19 1
    31   18   25 1
    32   18   64 1
    33   20   21 1
    34   20   22 1
    35   20   34 1
    36   20   64 1
    37   22   23 1
    38   22   50 1
    39   22   51 1
    40   23   24 1
    41   23   25 1
    42   23   66 1
    43   25   52 1
    44   25   53 1
    45   26   27 1
    46   26   54 1
    47   26   55 1
    48   26   66 1
    49   27   28 1
    50   27   56 1
    51   27   57 1
    52   28   33 1
    53   28   29 2
    54   29   30 1
    55   29   58 1
    56   30   31 1
    57   30   32 1
    58   32   33 2
    59   32   59 1
    60   34   39 ar
    61   34   35 ar
    62   35   36 ar
    63   35   60 1
    64   36   37 ar
    65   36   61 1
    66   37   38 ar
    67   37   62 1
    68   38   39 ar
    69   38   40 1
    70   39   63 1
    71   64   65 1
    72   66   67 1
    73   66   68 1
@<TRIPOS>MOLECULE
ZINC38685810
   69    72     0     0     0
SMALL
USER_CHARGES

@<TRIPOS>ATOM
      1 C1          2.6404   -7.4798   -0.2875 C.3       1 <0>         0.0086
      2 O1          2.3011   -6.1015   -0.4524 O.3       1 <0>        -0.2802
      3 C2          2.4687   -5.2930    0.6239 C.ar      1 <0>         0.2958
      4 C3          2.9623   -5.8395    1.8188 C.ar      1 <0>        -0.2170
      5 C4          3.1483   -5.0776    2.9223 C.ar      1 <0>         0.0306
      6 C5          2.8413   -3.6949    2.8826 C.ar      1 <0>        -0.2280
      7 C6          2.9274   -2.6947    3.8328 C.2       1 <0>         0.3115
      8 C7          2.4431   -1.4349    3.1503 C.3       1 <0>         0.1452
      9 H1          3.2356   -0.6867    3.1372 H         1 <0>         0.1955
     10 N1          2.0944   -1.8253    1.7806 N.pl3     1 <0>        -0.6097
     11 C8          2.3226   -3.1159    1.6303 C.ar      1 <0>         0.3608
     12 C9          2.1587   -3.9714    0.5150 C.ar      1 <0>        -0.2540
     13 C10         1.2301   -0.8928    3.8616 C.2       1 <0>         0.4658
     14 O2          0.1683   -1.4609    3.7638 O.2       1 <0>        -0.4608
     15 O3          1.3294    0.2212    4.6039 O.3       1 <0>        -0.3046
     16 C11         0.1397    0.6784    5.2501 C.3       1 <0>         0.0311
     17 N2          3.3591   -2.8184    5.1200 N.am      1 <0>        -0.6109
     18 C12         3.5052   -1.7220    5.8901 C.2       1 <0>         0.4996
     19 O4          3.2105   -0.6304    5.4527 O.2       1 <0>        -0.4319
     20 C13         4.0350   -1.8531    7.2948 C.3       1 <0>         0.0397
     21 N3          4.0995   -0.5252    7.9197 N.3       1 <0>        -0.5225
     22 C14         5.0881    0.3262    7.2457 C.3       1 <0>         0.0426
     23 C15         5.0251    1.7409    7.8259 C.3       1 <0>        -0.1143
     24 C16         5.3126    1.6842    9.3288 C.3       1 <0>         0.0330
     25 C17         4.2988    0.7532    9.9997 C.3       1 <0>        -0.1346
     26 C18         4.3829   -0.6329    9.3565 C.3       1 <0>         0.0542
     27 C19         6.7065    1.1580    9.5554 C.2       1 <0>         0.5111
     28 O5          7.4838    1.0809    8.6277 O.2       1 <0>        -0.4825
     29 N4          7.0892    0.7730   10.7890 N.am      1 <0>        -0.8432
     30 N5          5.1960    3.0317    9.9021 N.4       1 <0>        -0.3687
     31 C20         6.2068    3.9080    9.2980 C.3       1 <0>        -0.0161
     32 C21         6.0374    5.3320    9.8318 C.3       1 <0>        -0.1428
     33 C22         6.2096    5.3248   11.3534 C.3       1 <0>        -0.1416
     34 C23         5.1994    4.3510   11.9670 C.3       1 <0>        -0.1412
     35 C24         5.3998    2.9633   11.3541 C.3       1 <0>        -0.0349
     36 H2          2.0270   -7.9130    0.5025 H         1 <0>         0.0762
     37 H3          2.4599   -8.0126   -1.2211 H         1 <0>         0.1251
     38 H4          3.6931   -7.5651   -0.0182 H         1 <0>         0.0762
     39 H5          3.1989   -6.8925    1.8590 H         1 <0>         0.1656
     40 H6          3.5292   -5.5222    3.8299 H         1 <0>         0.1592
     41 H7          1.7848   -3.5780   -0.4188 H         1 <0>         0.1711
     42 H8         -0.6216    0.8931    4.5001 H         1 <0>         0.0703
     43 H9         -0.2253   -0.0935    5.9277 H         1 <0>         0.0663
     44 H10         0.3585    1.5843    5.8154 H         1 <0>         0.1149
     45 H11         3.5611   -3.6955    5.4816 H         1 <0>         0.4447
     46 H12         3.3724   -2.4957    7.8745 H         1 <0>         0.1322
     47 H13         5.0330   -2.2905    7.2674 H         1 <0>         0.0935
     48 H14         6.0859   -0.0850    7.3988 H         1 <0>         0.0627
     49 H15         4.8698    0.3613    6.1784 H         1 <0>         0.1112
     50 H16         5.7698    2.3685    7.3364 H         1 <0>         0.1059
     51 H17         4.0316    2.1579    7.6610 H         1 <0>         0.1086
     52 H18         4.5246    0.6752   11.0632 H         1 <0>         0.1005
     53 H19         3.2940    1.1547    9.8689 H         1 <0>         0.1164
     54 H20         3.6524   -1.2943    9.8222 H         1 <0>         0.1104
     55 H21         5.3840   -1.0396    9.4996 H         1 <0>         0.0535
     56 H22         6.4449    0.7576   11.5140 H         1 <0>         0.4067
     57 H23         8.0089    0.5113   10.9519 H         1 <0>         0.4247
     58 H24         7.2020    3.5418    9.5503 H         1 <0>         0.1261
     59 H25         6.0850    3.9095    8.2148 H         1 <0>         0.1362
     60 H26         6.7899    5.9807    9.3834 H         1 <0>         0.1165
     61 H27         5.0426    5.6992    9.5798 H         1 <0>         0.0915
     62 H28         7.2214    5.0063   11.6043 H         1 <0>         0.0822
     63 H29         6.0340    6.3268   11.7449 H         1 <0>         0.1000
     64 H30         5.3529    4.2985   13.0449 H         1 <0>         0.1171
     65 H31         4.1871    4.6979   11.7593 H         1 <0>         0.0919
     66 H32         4.6822    2.2675   11.7889 H         1 <0>         0.1357
     67 H33         6.4122    2.6173   11.5626 H         1 <0>         0.1330
     68 H34         1.7510   -1.2305    1.0955 H         1 <0>         0.4591
     69 H35         4.2764    3.3996    9.7095 H         1 <0>         0.4297
@<TRIPOS>BOND
     1    1    2 1
     2    1   36 1
     3    1   37 1
     4    1   38 1
     5    2    3 1
     6    3   12 ar
     7    3    4 ar
     8    4    5 ar
     9    4   39 1
    10    5    6 ar
    11    5   40 1
    12    6   11 ar
    13    6    7 2
    14    7    8 1
    15    7   17 1
    16    8    9 1
    17    8   10 1
    18    8   13 1
    19   10   11 2
    20   10   68 1
    21   11   12 ar
    22   12   41 1
    23   13   14 2
    24   13   15 1
    25   15   16 1
    26   16   42 1
    27   16   43 1
    28   16   44 1
    29   17   18 am
    30   17   45 1
    31   18   19 2
    32   18   20 1
    33   20   21 1
    34   20   46 1
    35   20   47 1
    36   21   26 1
    37   21   22 1
    38   22   23 1
    39   22   48 1
    40   22   49 1
    41   23   24 1
    42   23   50 1
    43   23   51 1
    44   24   25 1
    45   24   27 1
    46   24   30 1
    47   25   26 1
    48   25   52 1
    49   25   53 1
    50   26   54 1
    51   26   55 1
    52   27   28 2
    53   27   29 am
    54   29   56 1
    55   29   57 1
    56   30   35 1
    57   30   31 1
    58   30   69 1
    59   31   32 1
    60   31   58 1
    61   31   59 1
    62   32   33 1
    63   32   60 1
    64   32   61 1
    65   33   34 1
    66   33   62 1
    67   33   63 1
    68   34   35 1
    69   34   64 1
    70   34   65 1
    71   35   66 1
    72   35   67 1
@<TRIPOS>MOLECULE
ZINC52566261
   67    72     0     0     0
SMALL
USER_CHARGES

@<TRIPOS>ATOM
      1 C1         -0.0184    1.5028    0.0103 C.3       1 <0>        -0.0861
      2 C2          0.0021   -0.0041    0.0020 C.2       1 <0>        -0.1785
      3 C3          0.0089   -0.8403   -1.1379 C.2       1 <0>        -0.1696
      4 C4          0.0287   -2.1088   -0.6906 C.2       1 <0>        -0.0155
      5 O1          0.0343   -2.0852    0.6522 O.3       1 <0>        -0.1694
      6 C5          0.0233   -0.8114    1.0777 C.2       1 <0>        -0.0010
      7 C6          0.0300   -0.3627    2.5164 C.3       1 <0>        -0.0766
      8 C7          0.0419   -3.3464   -1.5504 C.3       1 <0>         0.0065
      9 H1          0.0207   -3.0769   -2.6064 H         1 <0>         0.1559
     10 C8          1.2572   -4.1914   -1.2437 C.ar      1 <0>        -0.1363
     11 C9          2.6074   -3.9545   -1.3432 C.ar      1 <0>        -0.0282
     12 C10         3.5149   -4.9493   -0.9786 C.ar      1 <0>        -0.0939
     13 C11         3.0417   -6.1764   -0.5160 C.ar      1 <0>        -0.0568
     14 C12         1.6877   -6.4057   -0.4193 C.ar      1 <0>        -0.1391
     15 C13         0.7780   -5.4126   -0.7833 C.ar      1 <0>         0.1806
     16 N1         -0.6168   -5.4098   -0.7736 N.am      1 <0>        -0.6595
     17 C14        -1.1290   -4.2427   -1.2080 C.2       1 <0>         0.5361
     18 O2         -2.3046   -3.9609   -1.3060 O.2       1 <0>        -0.4657
     19 C15         4.9742   -4.7031   -1.0829 C.ar      1 <0>        -0.0252
     20 C16         5.8885   -5.6969   -0.7249 C.ar      1 <0>        -0.0957
     21 C17         7.2437   -5.4164   -0.8409 C.ar      1 <0>         0.0604
     22 C18         7.6394   -4.1691   -1.3045 C.ar      1 <0>         0.0193
     23 N2          6.7489   -3.2540   -1.6332 N.ar      1 <0>        -0.4352
     24 C19         5.4539   -3.4791   -1.5449 C.ar      1 <0>         0.0917
     25 O3          8.1711   -6.3513   -0.5042 O.3       1 <0>        -0.3228
     26 C20         9.5445   -5.9853   -0.6519 C.3       1 <0>         0.0256
     27 C21        10.4329   -7.1565   -0.2277 C.3       1 <0>         0.0424
     28 H2         10.1712   -7.4627    0.7851 H         1 <0>         0.1651
     29 C22        11.9000   -6.7240   -0.2668 C.3       1 <0>        -0.1047
     30 C23        12.7658   -7.8358    0.2674 C.2       1 <0>        -0.0031
     31 C24        13.4070   -8.7846   -0.4524 C.ar      1 <0>        -0.1435
     32 C25        13.4862   -9.0557   -1.8928 C.ar      1 <0>        -0.0787
     33 C26        14.2243  -10.1040   -2.3233 C.ar      1 <0>        -0.0999
     34 C27        14.9135  -10.9363   -1.4305 C.ar      1 <0>         0.0484
     35 C28        14.8888  -10.7508   -0.0937 C.ar      1 <0>        -0.1927
     36 C29        14.1443   -9.6779    0.4694 C.ar      1 <0>         0.3308
     37 N3         13.9659   -9.2963    1.7109 N.pl3     1 <0>        -0.5615
     38 C30        13.0990   -8.1126    1.7164 C.3       1 <0>         0.0602
     39 N4         10.2299   -8.2834   -1.1479 N.4       1 <0>        -0.6426
     40 H3          1.0042    1.8801    0.0026 H         1 <0>         0.0685
     41 H4         -0.5455    1.8639   -0.8728 H         1 <0>         0.0701
     42 H5         -0.5286    1.8543    0.9071 H         1 <0>         0.0677
     43 H6         -0.0007   -0.5219   -2.1699 H         1 <0>         0.1536
     44 H7         -0.9959   -0.2691    2.8726 H         1 <0>         0.0851
     45 H8          0.5598   -1.0968    3.1234 H         1 <0>         0.0756
     46 H9          0.5310    0.6022    2.5937 H         1 <0>         0.0921
     47 H10         2.9648   -3.0010   -1.7030 H         1 <0>         0.1374
     48 H11         3.7400   -6.9500   -0.2327 H         1 <0>         0.1332
     49 H12         1.3281   -7.3588   -0.0605 H         1 <0>         0.1375
     50 H13        -1.1567   -6.1633   -0.4878 H         1 <0>         0.4213
     51 H14         5.5502   -6.6581   -0.3670 H         1 <0>         0.1491
     52 H15         8.6918   -3.9449   -1.3969 H         1 <0>         0.1551
     53 H16         4.7566   -2.7049   -1.8288 H         1 <0>         0.1699
     54 H17         9.7442   -5.7367   -1.6943 H         1 <0>         0.0997
     55 H18         9.7595   -5.1203   -0.0245 H         1 <0>         0.1214
     56 H19        12.1862   -6.5026   -1.2950 H         1 <0>         0.1370
     57 H20        12.0327   -5.8332    0.3472 H         1 <0>         0.1619
     58 H21        12.9626   -8.4276   -2.5983 H         1 <0>         0.1606
     59 H22        14.2840  -10.3054   -3.3827 H         1 <0>         0.1676
     60 H23        15.4875  -11.7600   -1.8285 H         1 <0>         0.1713
     61 H24        15.4371  -11.4210    0.5517 H         1 <0>         0.1705
     62 H25        13.6242   -7.2617    2.1503 H         1 <0>         0.1865
     63 H26        12.1882   -8.3191    2.2785 H         1 <0>         0.1786
     64 H27        10.4721   -7.9999   -2.0855 H         1 <0>         0.4385
     65 H28        10.8158   -9.0558   -0.8681 H         1 <0>         0.4289
     66 H29        14.3466   -9.7228    2.4945 H         1 <0>         0.4649
     67 H30         9.2624   -8.5686   -1.1221 H         1 <0>         0.4551
@<TRIPOS>BOND
     1    1    2 1
     2    1   40 1
     3    1   41 1
     4    1   42 1
     5    2    6 2
     6    2    3 1
     7    3    4 2
     8    3   43 1
     9    4    5 1
    10    4    8 1
    11    5    6 1
    12    6    7 1
    13    7   44 1
    14    7   45 1
    15    7   46 1
    16    8    9 1
    17    8   17 1
    18    8   10 1
    19   10   15 ar
    20   10   11 ar
    21   11   12 ar
    22   11   47 1
    23   12   13 ar
    24   12   19 1
    25   13   14 ar
    26   13   48 1
    27   14   15 ar
    28   14   49 1
    29   15   16 1
    30   16   17 am
    31   16   50 1
    32   17   18 2
    33   19   24 ar
    34   19   20 ar
    35   20   21 ar
    36   20   51 1
    37   21   22 ar
    38   21   25 1
    39   22   23 ar
    40   22   52 1
    41   23   24 ar
    42   24   53 1
    43   25   26 1
    44   26   27 1
    45   26   54 1
    46   26   55 1
    47   27   28 1
    48   27   29 1
    49   27   39 1
    50   29   30 1
    51   29   56 1
    52   29   57 1
    53   30   38 1
    54   30   31 2
    55   31   36 ar
    56   31   32 ar
    57   32   33 ar
    58   32   58 1
    59   33   34 ar
    60   33   59 1
    61   34   35 ar
    62   34   60 1
    63   35   36 ar
    64   35   61 1
    65   36   37 2
    66   37   38 1
    67   37   66 1
    68   38   62 1
    69   38   63 1
    70   39   64 1
    71   39   65 1
    72   39   67 1
@<TRIPOS>MOLECULE
ZINC03104271
   50    52     0     0     0
SMALL
USER_CHARGES
4-chloro-N-[2-[2-[[3-chloro-5-(trifluoromethyl)-2-pyridyl]amino]ethylamino]phenyl]-benzenesulfonamide
@<TRIPOS>ATOM
      1 C1         -1.8883    2.9793   -4.7456 C.ar      1 <0>        -0.0822
      2 C2         -1.3756    2.5116   -5.9413 C.ar      1 <0>        -0.1302
      3 C3         -0.3386    1.5971   -5.9430 C.ar      1 <0>        -0.1278
      4 C4          0.1901    1.1462   -4.7430 C.ar      1 <0>         0.0887
      5 C5         -0.3271    1.6180   -3.5367 C.ar      1 <0>         0.1913
      6 C6         -1.3706    2.5311   -3.5443 C.ar      1 <0>        -0.1703
      7 N1          0.2019    1.1664   -2.3215 N.pl3     1 <0>        -0.7509
      8 C7         -0.3430    1.6633   -1.0557 C.3       1 <0>         0.1200
      9 C8          0.4064    1.0167    0.1110 C.3       1 <0>         0.0649
     10 N2         -0.1385    1.5136    1.3769 N.pl3     1 <0>        -0.6724
     11 C9          0.3869    1.0651    2.5838 C.ar      1 <0>         0.4812
     12 C10        -0.1318    1.5457    3.7834 C.ar      1 <0>        -0.1319
     13 C11         0.3972    1.0863    4.9767 C.ar      1 <0>         0.0957
     14 C12         1.4376    0.1674    4.9301 C.ar      1 <0>        -0.2300
     15 C13         1.9064   -0.2618    3.7051 C.ar      1 <0>         0.2230
     16 C14         2.0482   -0.3561    6.2046 C.3       1 <0>         0.5307
     17 F1          3.0690   -1.2614    5.8951 F         1 <0>        -0.1627
     18 F2          2.5774    0.7097    6.9402 F         1 <0>        -0.1543
     19 F3          1.0652   -1.0026    6.9615 F         1 <0>        -0.1543
     20 Cl1        -1.4283    2.7001    3.7819 Cl        1 <0>         0.0408
     21 N3          1.2399    0.2197   -4.7423 N.pl3     1 <0>        -1.0518
     22 S1          2.4049    0.2875   -5.9174 S.o2      1 <0>         2.6923
     23 O1          3.3860   -0.6809   -5.5729 O.2       1 <0>        -0.9456
     24 O2          1.7247    0.2725   -7.1649 O.2       1 <0>        -0.9370
     25 C15         3.1845    1.8623   -5.7878 C.ar      1 <0>        -0.6769
     26 C16         2.6950    2.9369   -6.5067 C.ar      1 <0>         0.0007
     27 C17         3.3027    4.1738   -6.4012 C.ar      1 <0>        -0.1282
     28 C18         4.4080    4.3337   -5.5845 C.ar      1 <0>         0.0215
     29 C19         4.9008    3.2566   -4.8697 C.ar      1 <0>        -0.1333
     30 C20         4.2889    2.0215   -4.9717 C.ar      1 <0>        -0.0073
     31 Cl2         5.1757    5.8854   -5.4565 Cl        1 <0>        -0.0455
     32 H1         -2.6983    3.6936   -4.7497 H         1 <0>         0.1300
     33 H2         -1.7865    2.8615   -6.8768 H         1 <0>         0.1341
     34 H3          0.0593    1.2336   -6.8789 H         1 <0>         0.1642
     35 H4         -1.7762    2.8954   -2.6120 H         1 <0>         0.1242
     36 H5          0.9292    0.5246   -2.3178 H         1 <0>         0.3987
     37 H6         -1.4016    1.4113   -0.9919 H         1 <0>         0.0810
     38 H7         -0.2238    2.7458   -1.0087 H         1 <0>         0.0803
     39 H8          0.2872   -0.0658    0.0641 H         1 <0>         0.1013
     40 H9          1.4649    1.2687    0.0473 H         1 <0>         0.1007
     41 H10        -0.8658    2.1554    1.3731 H         1 <0>         0.4420
     42 H11         0.0126    1.4376    5.9228 H         1 <0>         0.1962
     43 H12         2.7151   -0.9765    3.6648 H         1 <0>         0.2192
     44 H13         1.2849   -0.4618   -4.0536 H         1 <0>         0.4190
     45 H14         1.8348    2.8108   -7.1476 H         1 <0>         0.1517
     46 H15         2.9175    5.0142   -6.9595 H         1 <0>         0.1484
     47 H16         5.7634    3.3809   -4.2318 H         1 <0>         0.1453
     48 H17         4.6733    1.1807   -4.4134 H         1 <0>         0.1481
     49 N4          1.4078    0.1632    2.5131 N.ar      1 <0>        -0.5237
     50 H18         1.7767   -0.1738    1.6162 H         1 <0>         0.4809
@<TRIPOS>BOND
     1    1    6 ar
     2    1    2 ar
     3    1   32 1
     4    2    3 ar
     5    2   33 1
     6    3    4 ar
     7    3   34 1
     8    4    5 ar
     9    4   21 1
    10    5    6 ar
    11    5    7 1
    12    6   35 1
    13    7    8 1
    14    7   36 1
    15    8    9 1
    16    8   37 1
    17    8   38 1
    18    9   10 1
    19    9   39 1
    20    9   40 1
    21   10   11 1
    22   10   41 1
    23   11   12 ar
    24   11   49 ar
    25   12   13 ar
    26   12   20 1
    27   13   14 ar
    28   13   42 1
    29   14   15 ar
    30   14   16 1
    31   15   43 1
    32   15   49 ar
    33   16   17 1
    34   16   18 1
    35   16   19 1
    36   21   22 1
    37   21   44 1
    38   22   23 2
    39   22   24 2
    40   22   25 1
    41   25   30 ar
    42   25   26 ar
    43   26   27 ar
    44   26   45 1
    45   27   28 ar
    46   27   46 1
    47   28   29 ar
    48   28   31 1
    49   29   30 ar
    50   29   47 1
    51   30   48 1
    52   49   50 1
@<TRIPOS>MOLECULE
ZINC10156523
   52    55     0     0     0
SMALL
USER_CHARGES
3-[4-(benzothiazol-2-ylsulfanylmethyl)-6-oxo-1H-pyrimidin-2-yl]-1-(4-ethoxyphenyl)-guanidine
@<TRIPOS>ATOM
      1 C1          1.3528   -6.3657    1.2908 C.3       1 <0>        -0.1577
      2 C2          1.1238   -4.8693    1.0685 C.3       1 <0>         0.0502
      3 O1         -0.2795   -4.6013    1.0389 O.3       1 <0>        -0.3028
      4 C3         -0.6573   -3.3090    0.8483 C.ar      1 <0>         0.1541
      5 C4         -2.0041   -2.9791    0.8091 C.ar      1 <0>        -0.1124
      6 C5         -2.3886   -1.6670    0.6155 C.ar      1 <0>        -0.0681
      7 C6         -1.4268   -0.6777    0.4602 C.ar      1 <0>         0.0590
      8 C7         -0.0789   -1.0095    0.4943 C.ar      1 <0>        -0.1357
      9 C8          0.3041   -2.3212    0.6937 C.ar      1 <0>        -0.1743
     10 N1         -1.8160    0.6535    0.2633 N.pl3     1 <0>        -0.6103
     11 C9         -1.0278    1.6777    0.7355 C.cat     1 <0>         0.7382
     12 N2          0.0785    1.3959    1.5110 N.pl3     1 <0>        -0.6345
     13 C10         0.8872    2.4159    1.9503 C.2       1 <0>         0.6430
     14 N3          1.9744    2.1246    2.7138 N.am      1 <0>        -0.6231
     15 H1          2.1746    1.2040    2.9445 H         1 <0>         0.4314
     16 C11         2.7770    3.1211    3.1452 C.2       1 <0>         0.5415
     17 O2          3.7591    2.8775    3.8268 O.2       1 <0>        -0.4731
     18 C12         2.4559    4.4458    2.7980 C.2       1 <0>        -0.2268
     19 C13         1.3492    4.6770    2.0343 C.2       1 <0>         0.2032
     20 N4          0.5929    3.6590    1.6292 N.2       1 <0>        -0.5709
     21 C14         0.9827    6.0869    1.6481 C.3       1 <0>        -0.1084
     22 S1          1.3986    6.3634   -0.0916 S.3       1 <0>         0.0876
     23 C15         0.8802    8.0382   -0.2676 C.2       1 <0>         0.0946
     24 N5          0.9297    8.8092   -1.3311 N.2       1 <0>        -0.4641
     25 C16         0.4912   10.0868   -1.3213 C.ar      1 <0>         0.0726
     26 C17         0.4867   11.0163   -2.3869 C.ar      1 <0>        -0.0517
     27 C18         0.0006   12.2851   -2.2076 C.ar      1 <0>        -0.1076
     28 C19        -0.5008   12.7029   -0.9834 C.ar      1 <0>        -0.0786
     29 C20        -0.5113   11.8198    0.0811 C.ar      1 <0>        -0.0709
     30 C21        -0.0273   10.5472   -0.0897 C.ar      1 <0>        -0.1264
     31 S2          0.1462    9.1185    0.9523 S.3       1 <0>         0.0006
     32 H2          2.4231   -6.5701    1.3133 H         1 <0>         0.0860
     33 H3          0.9057   -6.6647    2.2388 H         1 <0>         0.0710
     34 H4          0.8925   -6.9282    0.4785 H         1 <0>         0.0713
     35 H5          1.5709   -4.5702    0.1204 H         1 <0>         0.0691
     36 H6          1.5841   -4.3067    1.8807 H         1 <0>         0.0681
     37 H7         -2.7522   -3.7487    0.9295 H         1 <0>         0.1546
     38 H8         -3.4372   -1.4102    0.5854 H         1 <0>         0.1509
     39 H9          0.6698   -0.2413    0.3692 H         1 <0>         0.1347
     40 H10         1.3525   -2.5787    0.7247 H         1 <0>         0.1487
     41 H11        -2.6412    0.8532   -0.2058 H         1 <0>         0.4494
     42 H12        -2.1206    3.2174   -0.0262 H         1 <0>         0.4384
     43 H13         0.2873    0.4774    1.7424 H         1 <0>         0.4548
     44 H14         3.0747    5.2661    3.1306 H         1 <0>         0.1857
     45 H15        -0.0870    6.2371    1.7942 H         1 <0>         0.1295
     46 H16         1.5367    6.7897    2.2703 H         1 <0>         0.1368
     47 H17         0.8703   10.7229   -3.3529 H         1 <0>         0.1383
     48 H18         0.0083   12.9755   -3.0381 H         1 <0>         0.1419
     49 H19        -0.8793   13.7072   -0.8629 H         1 <0>         0.1462
     50 H20        -0.8984   12.1298    1.0404 H         1 <0>         0.1388
     51 N6         -1.2733    2.9529    0.4764 N.pl3     1 <0>        -0.7473
     52 H21        -0.6107    3.6755    0.7814 H         1 <0>         0.4544
@<TRIPOS>BOND
     1    1    2 1
     2    1   32 1
     3    1   33 1
     4    1   34 1
     5    2    3 1
     6    2   35 1
     7    2   36 1
     8    3    4 1
     9    4    9 ar
    10    4    5 ar
    11    5    6 ar
    12    5   37 1
    13    6    7 ar
    14    6   38 1
    15    7    8 ar
    16    7   10 1
    17    8    9 ar
    18    8   39 1
    19    9   40 1
    20   10   11 1
    21   10   41 1
    22   11   12 1
    23   11   51 2
    24   12   13 1
    25   12   43 1
    26   13   20 2
    27   13   14 1
    28   14   15 1
    29   14   16 am
    30   16   17 2
    31   16   18 1
    32   18   19 2
    33   18   44 1
    34   19   20 1
    35   19   21 1
    36   21   22 1
    37   21   45 1
    38   21   46 1
    39   22   23 1
    40   23   31 1
    41   23   24 2
    42   24   25 1
    43   25   30 ar
    44   25   26 ar
    45   26   27 ar
    46   26   47 1
    47   27   28 ar
    48   27   48 1
    49   28   29 ar
    50   28   49 1
    51   29   30 ar
    52   29   50 1
    53   30   31 1
    54   42   51 1
    55   51   52 1
@<TRIPOS>MOLECULE
ZINC25185734
   70    74     0     0     0
SMALL
USER_CHARGES
(E)-3-[(7aR)-1-[(2S)-2-hydroxy-3-[2-(5-methyl-1H-indol-3-yl)ethylamino]propyl]-7,7a-dihydroindol-3-yl]-1-phenyl-prop-2-en-1-one
@<TRIPOS>ATOM
      1 C1        -12.2122  -10.5317   -3.0530 C.3       1 <0>        -0.1178
      2 C2        -10.9854  -11.3400   -3.3887 C.ar      1 <0>        -0.0977
      3 C3        -11.0891  -12.7154   -3.5470 C.ar      1 <0>        -0.0947
      4 C4         -9.9803  -13.4727   -3.8543 C.ar      1 <0>        -0.1179
      5 C5         -8.7430  -12.8555   -4.0082 C.ar      1 <0>         0.0829
      6 C6         -8.6421  -11.4625   -3.8406 C.ar      1 <0>        -0.0981
      7 C7         -9.7802  -10.7134   -3.5354 C.ar      1 <0>        -0.0881
      8 C8         -7.2343  -11.1282   -4.0695 C.2       1 <0>        -0.2125
      9 C9         -6.5966  -12.2784   -4.3384 C.2       1 <0>         0.0970
     10 N1         -7.4819  -13.3212   -4.3062 N.pl3     1 <0>        -0.6005
     11 H1         -7.3182  -14.3956   -4.4759 H         1 <0>         0.4516
     12 C10        -6.6178   -9.7545   -4.0082 C.3       1 <0>        -0.0566
     13 C11        -6.2567   -9.4217   -2.5592 C.3       1 <0>        -0.0013
     14 N2         -5.6557   -8.0826   -2.4995 N.4       1 <0>        -0.5362
     15 C12        -5.2955   -7.7282   -1.1201 C.3       1 <0>         0.0071
     16 C13        -4.6740   -6.3303   -1.0984 C.3       1 <0>         0.0672
     17 H2         -5.3535   -5.5849   -1.5373 H         1 <0>         0.0827
     18 C14        -4.2988   -5.9613    0.3383 C.3       1 <0>         0.1033
     19 N3         -3.8147   -4.5791    0.3769 N.pl3     1 <0>        -0.5943
     20 C15        -2.5224   -4.1863    0.2146 C.2       1 <0>         0.1698
     21 C16        -2.4025   -2.8117    0.1169 C.2       1 <0>        -0.2196
     22 C17        -3.7470   -2.2427    0.1465 C.2       1 <0>        -0.0702
     23 C18        -4.2249   -1.0217   -0.1355 C.2       1 <0>        -0.1294
     24 C19        -5.6927   -0.8795   -0.1524 C.2       1 <0>        -0.1036
     25 C20        -6.4693   -1.9591   -0.2224 C.2       1 <0>        -0.1742
     26 C21        -5.8967   -3.3553   -0.2699 C.3       1 <0>        -0.0922
     27 C22        -4.6386   -3.3935    0.5899 C.3       1 <0>         0.1550
     28 H3         -4.9563   -3.3959    1.6430 H         1 <0>         0.0967
     29 C23        -1.1907   -2.0854    0.0022 C.2       1 <0>         0.0387
     30 C24        -1.2065   -0.7261    0.0412 C.2       1 <0>        -0.2813
     31 C25        -0.0261    0.0003   -0.2175 C.2       1 <0>         0.4253
     32 O1          1.0084   -0.5900   -0.4760 O.2       1 <0>        -0.4753
     33 C26        -0.0432    1.4793   -0.1750 C.ar      1 <0>        -0.1619
     34 C27        -1.2275    2.1585    0.1151 C.ar      1 <0>        -0.0780
     35 C28        -1.2354    3.5373    0.1587 C.ar      1 <0>        -0.1328
     36 C29        -0.0753    4.2472   -0.0961 C.ar      1 <0>        -0.0906
     37 C30         1.1008    3.5801   -0.3900 C.ar      1 <0>        -0.1305
     38 C31         1.1236    2.2014   -0.4306 C.ar      1 <0>        -0.0653
     39 O2         -3.5015   -6.3175   -1.9152 O.3       1 <0>        -0.6059
     40 H4        -13.0820  -11.2006   -2.9751 H         1 <0>         0.0689
     41 H5        -12.3903   -9.7894   -3.8450 H         1 <0>         0.0698
     42 H6        -12.0598  -10.0151   -2.0939 H         1 <0>         0.0678
     43 H7        -12.0487  -13.1963   -3.4283 H         1 <0>         0.1299
     44 H8        -10.0712  -14.5420   -3.9758 H         1 <0>         0.1252
     45 H9         -9.7071   -9.6431   -3.4104 H         1 <0>         0.1154
     46 H10        -5.5411  -12.3676   -4.5489 H         1 <0>         0.1700
     47 H11        -5.7086   -9.7327   -4.6269 H         1 <0>         0.0905
     48 H12        -7.3366   -9.0128   -4.3866 H         1 <0>         0.0903
     49 H13        -7.1659   -9.4435   -1.9405 H         1 <0>         0.1276
     50 H14        -5.5379  -10.1634   -2.1808 H         1 <0>         0.1274
     51 H15        -4.7464   -8.0609   -3.1181 H         1 <0>         0.4586
     52 H16        -6.1981   -7.7380   -0.4914 H         1 <0>         0.1413
     53 H17        -4.5701   -8.4581   -0.7315 H         1 <0>         0.1369
     54 H18        -5.1836   -6.0581    0.9847 H         1 <0>         0.1003
     55 H19        -3.5078   -6.6370    0.6958 H         1 <0>         0.1043
     56 H20        -1.6264   -4.8219    0.1581 H         1 <0>         0.1769
     57 H21        -3.5308   -0.1928   -0.3384 H         1 <0>         0.1437
     58 H22        -6.1457    0.1219   -0.1070 H         1 <0>         0.1285
     59 H23        -7.5635   -1.8489   -0.2473 H         1 <0>         0.1230
     60 H24        -6.6380   -4.0690    0.1187 H         1 <0>         0.0757
     61 H25        -5.6481   -3.6145   -1.3096 H         1 <0>         0.0745
     62 H26        -0.2376   -2.6211   -0.1183 H         1 <0>         0.1334
     63 H27        -2.1402   -0.1934    0.2746 H         1 <0>         0.1358
     64 H28        -2.1347    1.6057    0.3098 H         1 <0>         0.1273
     65 H29        -2.1501    4.0640    0.3878 H         1 <0>         0.1287
     66 H30        -0.0878    5.3267   -0.0652 H         1 <0>         0.1280
     67 H31         2.0029    4.1400   -0.5876 H         1 <0>         0.1297
     68 H32         2.0423    1.6818   -0.6594 H         1 <0>         0.1330
     69 H33        -2.9162   -5.3924   -2.0227 H         1 <0>         0.4397
     70 H34        -6.3744   -7.3409   -2.8780 H         1 <0>         0.4470
@<TRIPOS>BOND
     1    1    2 1
     2    1   40 1
     3    1   41 1
     4    1   42 1
     5    2    7 ar
     6    2    3 ar
     7    3    4 ar
     8    3   43 1
     9    4    5 ar
    10    4   44 1
    11    5   10 1
    12    5    6 ar
    13    6    7 ar
    14    6    8 1
    15    7   45 1
    16    8    9 2
    17    8   12 1
    18    9   10 1
    19    9   46 1
    20   10   11 1
    21   12   13 1
    22   12   47 1
    23   12   48 1
    24   13   14 1
    25   13   49 1
    26   13   50 1
    27   14   15 1
    28   14   51 1
    29   14   70 1
    30   15   16 1
    31   15   52 1
    32   15   53 1
    33   16   17 1
    34   16   18 1
    35   16   39 1
    36   18   19 1
    37   18   54 1
    38   18   55 1
    39   19   27 1
    40   19   20 1
    41   20   21 2
    42   20   56 1
    43   21   22 1
    44   21   29 1
    45   22   27 1
    46   22   23 2
    47   23   24 1
    48   23   57 1
    49   24   25 2
    50   24   58 1
    51   25   26 1
    52   25   59 1
    53   26   27 1
    54   26   60 1
    55   26   61 1
    56   27   28 1
    57   29   30 2
    58   29   62 1
    59   30   31 1
    60   30   63 1
    61   31   32 2
    62   31   33 1
    63   33   38 ar
    64   33   34 ar
    65   34   35 ar
    66   34   64 1
    67   35   36 ar
    68   35   65 1
    69   36   37 ar
    70   36   66 1
    71   37   38 ar
    72   37   67 1
    73   38   68 1
    74   39   69 1
@<TRIPOS>MOLECULE
ZINC39533661
   70    74     0     0     0
SMALL
USER_CHARGES

@<TRIPOS>ATOM
      1 C1          0.2889   -0.0344    1.1723 C.ar      1 <0>        -0.1076
      2 C2          1.3043    0.8859    1.3607 C.ar      1 <0>        -0.1163
      3 C3          2.6226    0.4999    1.2265 C.ar      1 <0>        -0.1035
      4 C4          2.9298   -0.8196    0.9006 C.ar      1 <0>        -0.0653
      5 C5          1.9030   -1.7424    0.7119 C.ar      1 <0>        -0.1060
      6 C6          0.5882   -1.3455    0.8486 C.ar      1 <0>        -0.1181
      7 C7          4.3453   -1.2403    0.7545 C.ar      1 <0>        -0.0141
      8 C8          5.3722   -0.3188    0.9484 C.ar      1 <0>        -0.1044
      9 C9          6.6870   -0.7156    0.8117 C.ar      1 <0>        -0.0512
     10 C10         6.9861   -2.0254    0.4824 C.ar      1 <0>        -0.1037
     11 C11         5.9706   -2.9443    0.2884 C.ar      1 <0>        -0.1322
     12 C12         4.6524   -2.5597    0.4286 C.ar      1 <0>        -0.1049
     13 C13         8.4236   -2.4527    0.3341 C.3       1 <0>         0.0930
     14 H1          9.0690   -1.7419    0.8501 H         1 <0>         0.1483
     15 C14         8.7931   -2.4929   -1.1501 C.3       1 <0>         0.1511
     16 N1          8.6881   -1.1457   -1.7161 N.2       1 <0>        -1.1914
     17 S1          8.9109   -0.9103   -3.3401 S.o2      1 <0>         2.7028
     18 O1         10.1964   -1.4287   -3.6530 O.2       1 <0>        -1.0660
     19 O2          7.7284   -1.3665   -3.9826 O.2       1 <0>        -1.0290
     20 O3          8.9797    0.5924   -3.5717 O.3       1 <0>        -0.6754
     21 C15        10.1443    1.1618   -3.1638 C.ar      1 <0>         0.1029
     22 C16        10.3051    1.5426   -1.8395 C.ar      1 <0>        -0.1101
     23 C17        11.4901    2.1208   -1.4272 C.ar      1 <0>        -0.1133
     24 C18        12.5152    2.3204   -2.3333 C.ar      1 <0>        -0.1178
     25 C19        12.3573    1.9421   -3.6538 C.ar      1 <0>        -0.1065
     26 C20        11.1766    1.3579   -4.0697 C.ar      1 <0>        -0.1075
     27 N2          8.6002   -3.7886    0.9190 N.4       1 <0>        -0.3932
     28 C21         8.2190   -3.7564    2.3373 C.3       1 <0>        -0.0369
     29 C22         8.4029   -5.1478    2.9465 C.3       1 <0>        -0.0254
     30 N3          9.8099   -5.5527    2.8267 N.4       1 <0>        -0.5134
     31 C23        10.1911   -5.5849    1.4084 C.3       1 <0>         0.0759
     32 H2          9.5610   -6.2995    0.8790 H         1 <0>         0.1714
     33 C24        10.0072   -4.1935    0.7992 C.3       1 <0>        -0.0269
     34 C25        11.6345   -6.0003    1.2855 C.ar      1 <0>        -0.1849
     35 C26        12.5112   -5.7710    2.3285 C.ar      1 <0>        -0.1066
     36 C27        13.8355   -6.1513    2.2161 C.ar      1 <0>        -0.1074
     37 C28        14.2862   -6.7624    1.0604 C.ar      1 <0>        -0.0606
     38 C29        13.4137   -6.9943    0.0150 C.ar      1 <0>        -0.1293
     39 C30        12.0828   -6.6182    0.1274 C.ar      1 <0>         0.1539
     40 O4         11.2211   -6.8503   -0.8975 O.3       1 <0>        -0.4969
     41 H3         -0.7411    0.2709    1.2827 H         1 <0>         0.1272
     42 H4          1.0650    1.9084    1.6129 H         1 <0>         0.1285
     43 H5          3.4146    1.2193    1.3735 H         1 <0>         0.1268
     44 H6          2.1355   -2.7662    0.4588 H         1 <0>         0.1237
     45 H7         -0.2085   -2.0600    0.7029 H         1 <0>         0.1273
     46 H8          5.1398    0.7043    1.2048 H         1 <0>         0.1341
     47 H9          7.4838   -0.0022    0.9617 H         1 <0>         0.1364
     48 H10         6.2096   -3.9656    0.0311 H         1 <0>         0.1098
     49 H11         3.8604   -3.2791    0.2812 H         1 <0>         0.1312
     50 H12         9.8154   -2.8546   -1.2603 H         1 <0>         0.0158
     51 H13         8.1123   -3.1621   -1.6761 H         1 <0>         0.0155
     52 H14         9.5044    1.3876   -1.1315 H         1 <0>         0.1436
     53 H15        11.6158    2.4174   -0.3964 H         1 <0>         0.1288
     54 H16        13.4408    2.7728   -2.0091 H         1 <0>         0.1278
     55 H17        13.1594    2.0994   -4.3597 H         1 <0>         0.1324
     56 H18        11.0553    1.0586   -5.1003 H         1 <0>         0.1303
     57 H19         8.8491   -3.0417    2.8668 H         1 <0>         0.1545
     58 H20         7.1750   -3.4560    2.4262 H         1 <0>         0.1785
     59 H21         8.1201   -5.1239    3.9989 H         1 <0>         0.1788
     60 H22         7.7728   -5.8624    2.4171 H         1 <0>         0.1558
     61 H23        10.3932   -4.8911    3.3168 H         1 <0>         0.4338
     62 H24        10.2900   -4.2174   -0.2532 H         1 <0>         0.1780
     63 H25        10.6373   -3.4788    1.3286 H         1 <0>         0.1572
     64 H26        12.1617   -5.2939    3.2321 H         1 <0>         0.1237
     65 H27        14.5194   -5.9706    3.0323 H         1 <0>         0.1443
     66 H28        15.3214   -7.0583    0.9749 H         1 <0>         0.1465
     67 H29        13.7661   -7.4716   -0.8874 H         1 <0>         0.1498
     68 H30        11.2269   -6.1646   -1.5793 H         1 <0>         0.4099
     69 H31         9.9312   -6.4703    3.2285 H         1 <0>         0.4510
     70 H32         8.0169   -4.4501    0.4289 H         1 <0>         0.4254
@<TRIPOS>BOND
     1    1    6 ar
     2    1    2 ar
     3    1   41 1
     4    2    3 ar
     5    2   42 1
     6    3    4 ar
     7    3   43 1
     8    4    5 ar
     9    4    7 1
    10    5    6 ar
    11    5   44 1
    12    6   45 1
    13    7   12 ar
    14    7    8 ar
    15    8    9 ar
    16    8   46 1
    17    9   10 ar
    18    9   47 1
    19   10   11 ar
    20   10   13 1
    21   11   12 ar
    22   11   48 1
    23   12   49 1
    24   13   14 1
    25   13   15 1
    26   13   27 1
    27   15   16 1
    28   15   50 1
    29   15   51 1
    30   16   17 1
    31   17   18 2
    32   17   19 2
    33   17   20 1
    34   20   21 1
    35   21   26 ar
    36   21   22 ar
    37   22   23 ar
    38   22   52 1
    39   23   24 ar
    40   23   53 1
    41   24   25 ar
    42   24   54 1
    43   25   26 ar
    44   25   55 1
    45   26   56 1
    46   27   33 1
    47   27   28 1
    48   27   70 1
    49   28   29 1
    50   28   57 1
    51   28   58 1
    52   29   30 1
    53   29   59 1
    54   29   60 1
    55   30   31 1
    56   30   61 1
    57   30   69 1
    58   31   32 1
    59   31   33 1
    60   31   34 1
    61   33   62 1
    62   33   63 1
    63   34   39 ar
    64   34   35 ar
    65   35   36 ar
    66   35   64 1
    67   36   37 ar
    68   36   65 1
    69   37   38 ar
    70   37   66 1
    71   38   39 ar
    72   38   67 1
    73   39   40 1
    74   40   68 1
@<TRIPOS>MOLECULE
ZINC40916934
   65    69     0     0     0
SMALL
USER_CHARGES

@<TRIPOS>ATOM
      1 C1          0.3620    1.4513   -0.4834 C.3       1 <0>        -0.1563
      2 C2          0.2387   -0.0639   -0.3104 C.3       1 <0>        -0.1502
      3 C3          1.0375   -0.5035    0.9183 C.3       1 <0>        -0.0108
      4 N1          0.9192   -1.9583    1.0844 N.4       1 <0>        -0.3850
      5 C4         -0.4761   -2.3065    1.3960 C.3       1 <0>        -0.0120
      6 C5         -0.6313   -3.8269    1.3086 C.3       1 <0>        -0.1183
      7 C6          0.4570   -4.4910    2.1065 C.2       1 <0>        -0.1248
      8 C7          1.5367   -3.8475    2.4968 C.2       1 <0>        -0.1034
      9 C8          1.7793   -2.3980    2.1893 C.3       1 <0>         0.0411
     10 C9          2.5555   -4.5843    3.2727 C.ar      1 <0>        -0.1063
     11 C10         2.8148   -4.2322    4.5985 C.ar      1 <0>        -0.0764
     12 C11         3.7652   -4.9217    5.3198 C.ar      1 <0>        -0.1521
     13 C12         4.4658   -5.9670    4.7284 C.ar      1 <0>         0.2005
     14 C13         4.2101   -6.3198    3.4079 C.ar      1 <0>        -0.1138
     15 C14         3.2568   -5.6379    2.6833 C.ar      1 <0>        -0.0774
     16 N2          5.4284   -6.6638    5.4619 N.pl3     1 <0>        -0.6383
     17 C15         6.5536   -7.1666    4.8273 C.ar      1 <0>         0.6101
     18 N3          6.7457   -6.8790    3.5509 N.ar      1 <0>        -0.6005
     19 C16         7.8138   -7.3420    2.9038 C.ar      1 <0>         0.3766
     20 C17         8.7330   -8.1431    3.6063 C.ar      1 <0>        -0.2824
     21 C18         9.7815   -8.4959    2.6499 C.2       1 <0>        -0.1492
     22 C19         9.4538   -7.9179    1.4833 C.2       1 <0>         0.0338
     23 N4          8.2778   -7.2242    1.6224 N.pl3     1 <0>        -0.5686
     24 H1          7.8397   -6.7245    0.9158 H         1 <0>         0.4211
     25 C20         8.4894   -8.4227    4.9598 C.ar      1 <0>         0.5145
     26 N5          7.3996   -7.9138    5.5253 N.ar      1 <0>        -0.6139
     27 N6          9.3664   -9.2068    5.6903 N.pl3     1 <0>        -0.6197
     28 C21         9.0517   -9.5714    6.9946 C.ar      1 <0>         0.2224
     29 C22         7.7241   -9.6512    7.3964 C.ar      1 <0>        -0.1387
     30 C23         7.4144  -10.0127    8.6914 C.ar      1 <0>        -0.0671
     31 C24         8.4211  -10.2989    9.6000 C.ar      1 <0>        -0.1495
     32 C25         9.7433  -10.2255    9.2198 C.ar      1 <0>        -0.0609
     33 C26        10.0732   -9.8661    7.9106 C.ar      1 <0>        -0.1870
     34 C27        11.4862   -9.7916    7.4953 C.2       1 <0>         0.5714
     35 O1         11.7737   -9.3770    6.3889 O.2       1 <0>        -0.5510
     36 N7         12.4589  -10.1831    8.3420 N.am      1 <0>        -0.8450
     37 H2          1.4104    1.7176   -0.6173 H         1 <0>         0.0674
     38 H3         -0.2071    1.7644   -1.3587 H         1 <0>         0.0774
     39 H4         -0.0296    1.9512    0.4025 H         1 <0>         0.0671
     40 H5         -0.8097   -0.3303   -0.1765 H         1 <0>         0.0862
     41 H6          0.6303   -0.5638   -1.1963 H         1 <0>         0.0861
     42 H7          2.0860   -0.2372    0.7844 H         1 <0>         0.1319
     43 H8          0.6460   -0.0036    1.8042 H         1 <0>         0.1305
     44 H9         -0.7206   -1.9710    2.4039 H         1 <0>         0.1320
     45 H10        -1.1417   -1.8288    0.6771 H         1 <0>         0.1367
     46 H11        -1.6030   -4.1162    1.7089 H         1 <0>         0.1248
     47 H12        -0.5603   -4.1398    0.2669 H         1 <0>         0.1051
     48 H13         0.3485   -5.5330    2.3688 H         1 <0>         0.1405
     49 H14         2.8238   -2.2585    1.9105 H         1 <0>         0.1392
     50 H15         1.5625   -1.8004    3.0747 H         1 <0>         0.1373
     51 H16         2.2712   -3.4201    5.0583 H         1 <0>         0.1249
     52 H17         3.9665   -4.6495    6.3454 H         1 <0>         0.1311
     53 H18         4.7564   -7.1317    2.9511 H         1 <0>         0.1423
     54 H19         3.0553   -5.9155    1.6592 H         1 <0>         0.1234
     55 H20         5.3097   -6.7960    6.4155 H         1 <0>         0.4274
     56 H21        10.6525   -9.1041    2.8448 H         1 <0>         0.1534
     57 H22        10.0291   -7.9885    0.5720 H         1 <0>         0.1830
     58 H23        10.2002   -9.5018    5.2920 H         1 <0>         0.4369
     59 H24         6.9338   -9.4298    6.6944 H         1 <0>         0.1535
     60 H25         6.3809  -10.0727    8.9991 H         1 <0>         0.1304
     61 H26         8.1678  -10.5805   10.6113 H         1 <0>         0.1310
     62 H27        10.5238  -10.4496    9.9319 H         1 <0>         0.1301
     63 H28        12.2296  -10.5138    9.2246 H         1 <0>         0.4036
     64 H29        13.3884  -10.1341    8.0689 H         1 <0>         0.4084
     65 H30         1.2016   -2.4195    0.2326 H         1 <0>         0.4251
@<TRIPOS>BOND
     1    1    2 1
     2    1   37 1
     3    1   38 1
     4    1   39 1
     5    2    3 1
     6    2   40 1
     7    2   41 1
     8    3    4 1
     9    3   42 1
    10    3   43 1
    11    4    9 1
    12    4    5 1
    13    4   65 1
    14    5    6 1
    15    5   44 1
    16    5   45 1
    17    6    7 1
    18    6   46 1
    19    6   47 1
    20    7    8 2
    21    7   48 1
    22    8    9 1
    23    8   10 1
    24    9   49 1
    25    9   50 1
    26   10   15 ar
    27   10   11 ar
    28   11   12 ar
    29   11   51 1
    30   12   13 ar
    31   12   52 1
    32   13   14 ar
    33   13   16 1
    34   14   15 ar
    35   14   53 1
    36   15   54 1
    37   16   17 1
    38   16   55 1
    39   17   26 ar
    40   17   18 ar
    41   18   19 ar
    42   19   23 1
    43   19   20 ar
    44   20   21 1
    45   20   25 ar
    46   21   22 2
    47   21   56 1
    48   22   23 1
    49   22   57 1
    50   23   24 1
    51   25   26 ar
    52   25   27 1
    53   27   28 1
    54   27   58 1
    55   28   33 ar
    56   28   29 ar
    57   29   30 ar
    58   29   59 1
    59   30   31 ar
    60   30   60 1
    61   31   32 ar
    62   31   61 1
    63   32   33 ar
    64   32   62 1
    65   33   34 1
    66   34   35 2
    67   34   36 am
    68   36   63 1
    69   36   64 1
@<TRIPOS>MOLECULE
ZINC13456630
   70    72     0     0     0
SMALL
USER_CHARGES

@<TRIPOS>ATOM
      1 C1         -0.0901    1.8167    0.5488 C.ar      1 <0>        -0.0610
      2 C2          1.1378    2.4458    0.4642 C.ar      1 <0>        -0.1392
      3 C3          2.2891    1.6966    0.3085 C.ar      1 <0>        -0.0189
      4 C4          2.2124    0.3182    0.2379 C.ar      1 <0>        -0.6784
      5 C5          0.9845   -0.3110    0.3234 C.ar      1 <0>        -0.0225
      6 C6         -0.1669    0.4383    0.4777 C.ar      1 <0>        -0.1397
      7 S1          3.6796   -0.6367    0.0383 S.o2      1 <0>         2.6969
      8 O1          3.2851   -1.8700   -0.5470 O.2       1 <0>        -0.9549
      9 O2          4.6421    0.2184   -0.5630 O.2       1 <0>        -0.9539
     10 N1          4.2431   -0.9913    1.5546 N.pl3     1 <0>        -1.1185
     11 C7          3.4549   -1.8436    2.4482 C.3       1 <0>         0.1199
     12 C8          4.3342   -2.3186    3.6068 C.3       1 <0>         0.0674
     13 N2          3.5460   -3.1709    4.5004 N.2       1 <0>        -0.6169
     14 C9          3.8706   -4.4220    4.6611 C.2       1 <0>         0.6352
     15 N3          3.0633   -5.2519    5.4022 N.pl3     1 <0>        -0.7129
     16 C10         3.4285   -6.6591    5.5829 C.3       1 <0>         0.1063
     17 C11         2.3697   -7.3545    6.4410 C.3       1 <0>        -0.1283
     18 C12         2.7511   -8.8242    6.6298 C.3       1 <0>         0.0625
     19 O3          1.7623   -9.4737    7.4313 O.3       1 <0>        -0.3081
     20 C13         1.9517  -10.7932    7.6957 C.ar      1 <0>         0.1427
     21 C14         3.0696  -11.4480    7.1988 C.ar      1 <0>        -0.1779
     22 C15         3.2601  -12.7890    7.4694 C.ar      1 <0>        -0.0694
     23 C16         2.3379  -13.4790    8.2347 C.ar      1 <0>        -0.1374
     24 C17         1.2231  -12.8290    8.7306 C.ar      1 <0>        -0.1193
     25 C18         1.0309  -11.4863    8.4676 C.ar      1 <0>        -0.1316
     26 C19         0.2198  -13.5841    9.5639 C.3       1 <0>         0.0449
     27 N4          0.5969  -13.4983   10.9811 N.4       1 <0>        -0.3814
     28 C20         1.8790  -14.1826   11.1871 C.3       1 <0>        -0.0137
     29 C21         2.3162  -14.0267   12.6452 C.3       1 <0>        -0.1448
     30 C22         1.2539  -14.6434   13.5597 C.3       1 <0>        -0.1392
     31 C23        -0.0949  -13.9729   13.2834 C.3       1 <0>        -0.1461
     32 C24        -0.4429  -14.1308   11.8017 C.3       1 <0>        -0.0072
     33 N5          5.0248   -4.9143    4.0876 N.pl3     1 <0>        -0.6337
     34 C25         5.3020   -6.2390    4.1529 C.1       1 <0>         0.4124
     35 N6          5.5344   -7.3497    4.2076 N.1       1 <0>        -0.4127
     36 H1         -0.9891    2.4018    0.6749 H         1 <0>         0.1328
     37 H2          1.1978    3.5228    0.5194 H         1 <0>         0.1350
     38 H3          3.2484    2.1882    0.2417 H         1 <0>         0.1411
     39 H4          0.9245   -1.3879    0.2679 H         1 <0>         0.1391
     40 H5         -1.1262   -0.0533    0.5441 H         1 <0>         0.1339
     41 H6          5.0950   -0.6346    1.8511 H         1 <0>         0.4201
     42 H7          2.6114   -1.2761    2.8412 H         1 <0>         0.0785
     43 H8          3.0856   -2.7069    1.8947 H         1 <0>         0.0796
     44 H9          5.1777   -2.8862    3.2137 H         1 <0>         0.0399
     45 H10         4.7035   -1.4553    4.1603 H         1 <0>         0.0919
     46 H11         2.2518   -4.9058    5.8054 H         1 <0>         0.4274
     47 H12         3.4858   -7.1474    4.6101 H         1 <0>         0.0781
     48 H13         4.3970   -6.7223    6.0789 H         1 <0>         0.0727
     49 H14         2.3123   -6.8662    7.4138 H         1 <0>         0.0884
     50 H15         1.4012   -7.2914    5.9451 H         1 <0>         0.0897
     51 H16         2.8085   -9.3125    5.6570 H         1 <0>         0.0736
     52 H17         3.7197   -8.8874    7.1258 H         1 <0>         0.0719
     53 H18         3.7899  -10.9097    6.6007 H         1 <0>         0.1409
     54 H19         4.1298  -13.2992    7.0825 H         1 <0>         0.1397
     55 H20         2.4886  -14.5275    8.4452 H         1 <0>         0.1332
     56 H21         0.1621  -10.9778    8.8589 H         1 <0>         0.1394
     57 H22        -0.7696  -13.1488    9.4242 H         1 <0>         0.1386
     58 H23         0.2039  -14.6292    9.2548 H         1 <0>         0.1379
     59 H24         1.7669  -15.2413   10.9531 H         1 <0>         0.1280
     60 H25         2.6332  -13.7448   10.5333 H         1 <0>         0.1317
     61 H26         3.2674  -14.5370   12.7965 H         1 <0>         0.1110
     62 H27         2.4288  -12.9683   12.8802 H         1 <0>         0.0863
     63 H28         1.1772  -15.7123   13.3603 H         1 <0>         0.0818
     64 H29         1.5331  -14.4849   14.6013 H         1 <0>         0.0936
     65 H30        -0.8672  -14.4448   13.8909 H         1 <0>         0.1123
     66 H31        -0.0324  -12.9134   13.5317 H         1 <0>         0.0872
     67 H32        -1.4027  -13.6547   11.6016 H         1 <0>         0.1305
     68 H33        -0.5054  -15.1906   11.5546 H         1 <0>         0.1290
     69 H34         5.6378   -4.3121    3.6377 H         1 <0>         0.4428
     70 H35         0.6891  -12.5289   11.2455 H         1 <0>         0.4222
@<TRIPOS>BOND
     1    1    6 ar
     2    1    2 ar
     3    1   36 1
     4    2    3 ar
     5    2   37 1
     6    3    4 ar
     7    3   38 1
     8    4    5 ar
     9    4    7 1
    10    5    6 ar
    11    5   39 1
    12    6   40 1
    13    7    8 2
    14    7    9 2
    15    7   10 1
    16   10   11 1
    17   10   41 1
    18   11   12 1
    19   11   42 1
    20   11   43 1
    21   12   13 1
    22   12   44 1
    23   12   45 1
    24   13   14 2
    25   14   15 1
    26   14   33 1
    27   15   16 1
    28   15   46 1
    29   16   17 1
    30   16   47 1
    31   16   48 1
    32   17   18 1
    33   17   49 1
    34   17   50 1
    35   18   19 1
    36   18   51 1
    37   18   52 1
    38   19   20 1
    39   20   25 ar
    40   20   21 ar
    41   21   22 ar
    42   21   53 1
    43   22   23 ar
    44   22   54 1
    45   23   24 ar
    46   23   55 1
    47   24   25 ar
    48   24   26 1
    49   25   56 1
    50   26   27 1
    51   26   57 1
    52   26   58 1
    53   27   32 1
    54   27   28 1
    55   27   70 1
    56   28   29 1
    57   28   59 1
    58   28   60 1
    59   29   30 1
    60   29   61 1
    61   29   62 1
    62   30   31 1
    63   30   63 1
    64   30   64 1
    65   31   32 1
    66   31   65 1
    67   31   66 1
    68   32   67 1
    69   32   68 1
    70   33   34 1
    71   33   69 1
    72   34   35 3
@<TRIPOS>MOLECULE
ZINC09492233
   60    64     0     0     0
SMALL
USER_CHARGES
5-(morpholinomethylBLAHyl)aminobenzene-1,3-dicarboxamide
@<TRIPOS>ATOM
      1 C1         -2.4416   -0.5295    0.0711 C.ar      1 <0>        -0.0598
      2 C2         -3.5342   -1.0365    0.7715 C.ar      1 <0>        -0.1145
      3 C3         -4.7490   -0.3494    0.7593 C.ar      1 <0>        -0.0493
      4 C4         -4.8694    0.8372    0.0504 C.ar      1 <0>         0.1300
      5 C5         -3.7817    1.3477   -0.6434 C.ar      1 <0>        -0.0304
      6 C6         -2.5657    0.6626   -0.6395 C.ar      1 <0>        -0.1316
      7 C7         -1.4085    1.2045   -1.3838 C.2       1 <0>         0.5760
      8 O1         -1.5174    2.2445   -2.0035 O.2       1 <0>        -0.5494
      9 N1         -0.2330    0.5452   -1.3750 N.am      1 <0>        -0.8421
     10 N2         -6.0880    1.5233    0.0402 N.pl3     1 <0>        -0.6404
     11 C8         -6.1064    2.9028    0.1518 C.ar      1 <0>         0.4872
     12 C9         -7.3411    3.6007    0.2637 C.ar      1 <0>        -0.1958
     13 C10        -8.7004    3.0584    0.2953 C.2       1 <0>        -0.1016
     14 C11        -9.7097    3.9442    0.4178 C.2       1 <0>        -0.1151
     15 S1         -8.9244    5.5313    0.5048 S.3       1 <0>         0.1668
     16 C12        -7.2365    5.0016    0.3769 C.ar      1 <0>         0.1242
     17 N3         -6.0656    5.6084    0.3668 N.ar      1 <0>        -0.4832
     18 C13        -4.9537    4.9076    0.2547 C.ar      1 <0>         0.3081
     19 N4         -4.9760    3.5909    0.1504 N.ar      1 <0>        -0.5660
     20 C14        -3.6285    5.6250    0.2459 C.3       1 <0>         0.0864
     21 C15        -3.0070    4.7582   -1.9288 C.3       1 <0>        -0.0403
     22 C16        -2.6930    5.1584   -3.3728 C.3       1 <0>         0.0450
     23 O2         -1.5829    6.0601   -3.3817 O.3       1 <0>        -0.3529
     24 C17        -1.8018    7.2502   -2.6194 C.3       1 <0>         0.0352
     25 C18        -2.1068    6.8712   -1.1678 C.3       1 <0>        -0.0366
     26 C19       -11.1774    3.6463    0.4681 C.3       1 <0>        -0.0504
     27 C20       -11.3965    2.2047   -0.0125 C.3       1 <0>        -0.1163
     28 C21       -10.3981    1.2909    0.7042 C.3       1 <0>        -0.1225
     29 C22        -8.9842    1.5625    0.1896 C.3       1 <0>        -0.0740
     30 C23        -3.4067   -2.3012    1.5273 C.2       1 <0>         0.5620
     31 O3         -4.3602   -2.7429    2.1381 O.2       1 <0>        -0.5259
     32 N5         -2.2332   -2.9639    1.5389 N.am      1 <0>        -0.8455
     33 H1         -1.5007   -1.0596    0.0786 H         1 <0>         0.1356
     34 H2         -5.5962   -0.7419    1.3020 H         1 <0>         0.1501
     35 H3         -3.8773    2.2739   -1.1906 H         1 <0>         0.1488
     36 H4         -0.1461   -0.2847   -0.8805 H         1 <0>         0.4034
     37 H5          0.5250    0.8986   -1.8665 H         1 <0>         0.4131
     38 H6         -6.9202    1.0325   -0.0451 H         1 <0>         0.4307
     39 H7         -3.7048    6.5365    0.8388 H         1 <0>         0.1576
     40 H8         -2.8620    4.9776    0.6719 H         1 <0>         0.1565
     41 H9         -2.1571    4.2220   -1.5067 H         1 <0>         0.1609
     42 H10        -3.8878    4.1163   -1.9123 H         1 <0>         0.1290
     43 H11        -3.5625    5.6472   -3.8123 H         1 <0>         0.0725
     44 H12        -2.4441    4.2690   -3.9517 H         1 <0>         0.1424
     45 H13        -2.6454    7.7999   -3.0370 H         1 <0>         0.0795
     46 H14        -0.9081    7.8734   -2.6529 H         1 <0>         0.1424
     47 H15        -2.3304    7.7717   -0.5958 H         1 <0>         0.1434
     48 H16        -1.2426    6.3690   -0.7328 H         1 <0>         0.1431
     49 H17       -11.5382    3.7508    1.4913 H         1 <0>         0.0976
     50 H18       -11.7144    4.3363   -0.1827 H         1 <0>         0.0946
     51 H19       -12.4135    1.8913    0.2232 H         1 <0>         0.0856
     52 H20       -11.2376    2.1502   -1.0895 H         1 <0>         0.0729
     53 H21       -10.4365    1.4829    1.7764 H         1 <0>         0.0734
     54 H22       -10.6590    0.2497    0.5141 H         1 <0>         0.0813
     55 H23        -8.2636    1.0104    0.7929 H         1 <0>         0.0758
     56 H24        -8.9073    1.2468   -0.8509 H         1 <0>         0.0874
     57 H25        -1.4723   -2.6114    1.0515 H         1 <0>         0.3999
     58 H26        -2.1496   -3.7934    2.0347 H         1 <0>         0.4136
     59 N6         -3.2871    5.9814   -1.1483 N.4       1 <0>        -0.3949
     60 H27        -4.0831    6.4729   -1.5716 H         1 <0>         0.4266
@<TRIPOS>BOND
     1    1    6 ar
     2    1    2 ar
     3    1   33 1
     4    2    3 ar
     5    2   30 1
     6    3    4 ar
     7    3   34 1
     8    4    5 ar
     9    4   10 1
    10    5    6 ar
    11    5   35 1
    12    6    7 1
    13    7    8 2
    14    7    9 am
    15    9   36 1
    16    9   37 1
    17   10   11 1
    18   10   38 1
    19   11   19 ar
    20   11   12 ar
    21   12   16 ar
    22   12   13 1
    23   13   29 1
    24   13   14 2
    25   14   15 1
    26   14   26 1
    27   15   16 1
    28   16   17 ar
    29   17   18 ar
    30   18   19 ar
    31   18   20 1
    32   20   39 1
    33   20   40 1
    34   20   59 1
    35   21   22 1
    36   21   41 1
    37   21   42 1
    38   21   59 1
    39   22   23 1
    40   22   43 1
    41   22   44 1
    42   23   24 1
    43   24   25 1
    44   24   45 1
    45   24   46 1
    46   25   47 1
    47   25   48 1
    48   25   59 1
    49   26   27 1
    50   26   49 1
    51   26   50 1
    52   27   28 1
    53   27   51 1
    54   27   52 1
    55   28   29 1
    56   28   53 1
    57   28   54 1
    58   29   55 1
    59   29   56 1
    60   30   31 2
    61   30   32 am
    62   32   57 1
    63   32   58 1
    64   59   60 1
@<TRIPOS>MOLECULE
ZINC20800685
   66    68     0     0     0
SMALL
USER_CHARGES
2-[4-[2-(4-amino-1-methyl-2,6-dioxo-3-propyl-pyrimidin-5-yl)-2-oxo-ethyl]piperazin-1-yl]-N-(p-tolyl)acetamide
@<TRIPOS>ATOM
      1 C1          0.2305    1.9001   -2.3145 C.3       1 <0>        -0.1539
      2 C2          0.8295    1.2032   -1.0912 C.3       1 <0>        -0.1434
      3 C3         -0.0141    1.5261    0.1437 C.3       1 <0>         0.0919
      4 N1          0.5595    0.8588    1.3150 N.am      1 <0>        -0.5427
      5 C4          1.4989    1.5097    2.0628 C.2       1 <0>         0.5720
      6 C5          2.0431    0.8614    3.1851 C.2       1 <0>        -0.4770
      7 C6          1.5663   -0.4929    3.4936 C.2       1 <0>         0.5822
      8 O1          2.0023   -1.1015    4.4534 O.2       1 <0>        -0.5155
      9 N2          0.6347   -1.0483    2.6914 N.am      1 <0>        -0.5590
     10 C7          0.1474   -0.3778    1.6349 C.2       1 <0>         0.7099
     11 O2         -0.6947   -0.9122    0.9401 O.2       1 <0>        -0.5175
     12 C8          0.1443   -2.3983    2.9798 C.3       1 <0>         0.0733
     13 C9          3.0160    1.4920    3.9897 C.2       1 <0>         0.4508
     14 O3          3.3241    2.6474    3.7769 O.2       1 <0>        -0.5089
     15 C10         3.6726    0.7317    5.1130 C.3       1 <0>         0.0291
     16 N3          4.6401    1.6026    5.7938 N.3       1 <0>        -0.5292
     17 C11         5.7596    1.9424    4.9046 C.3       1 <0>         0.0189
     18 C12         6.7016    2.9120    5.6223 C.3       1 <0>         0.0048
     19 N4          7.1875    2.2910    6.8624 N.4       1 <0>        -0.3899
     20 C13         6.0680    1.9512    7.7517 C.3       1 <0>        -0.0046
     21 C14         5.1260    0.9817    7.0340 C.3       1 <0>         0.0293
     22 C15         8.1550    3.1619    7.5432 C.3       1 <0>        -0.0254
     23 C16         8.8198    2.3982    8.6594 C.2       1 <0>         0.5010
     24 O4          8.5047    1.2477    8.8786 O.2       1 <0>        -0.5177
     25 N5          9.7645    2.9937    9.4140 N.am      1 <0>        -0.6578
     26 C17        10.4508    2.2570   10.3858 C.ar      1 <0>         0.1137
     27 C18         9.7866    1.2807   11.1166 C.ar      1 <0>        -0.1087
     28 C19        10.4682    0.5513   12.0710 C.ar      1 <0>        -0.1052
     29 C20        11.8077    0.8006   12.3075 C.ar      1 <0>        -0.0789
     30 C21        12.4706    1.7757   11.5851 C.ar      1 <0>        -0.1024
     31 C22        11.7961    2.5046   10.6253 C.ar      1 <0>        -0.1265
     32 C23        12.5467    0.0075   13.3544 C.3       1 <0>        -0.1250
     33 N6          1.9017    2.7651    1.7267 N.pl3     1 <0>        -0.8135
     34 H1          0.8370    1.6679   -3.2023 H         1 <0>         0.0681
     35 H2          0.2229    2.9877   -2.1498 H         1 <0>         0.0604
     36 H3         -0.7990    1.5457   -2.4708 H         1 <0>         0.0656
     37 H4          0.8371    0.1156   -1.2559 H         1 <0>         0.0791
     38 H5          1.8591    1.5576   -0.9348 H         1 <0>         0.0672
     39 H6         -0.0217    2.6137    0.3084 H         1 <0>         0.0964
     40 H7         -1.0437    1.1717   -0.0126 H         1 <0>         0.1206
     41 H8         -0.6049   -2.6848    2.2271 H         1 <0>         0.1046
     42 H9         -0.3148   -2.4159    3.9793 H         1 <0>         0.0840
     43 H10         0.9844   -3.1078    2.9496 H         1 <0>         0.0834
     44 H11         2.9063    0.4035    5.8307 H         1 <0>         0.1289
     45 H12         4.1937   -0.1472    4.7055 H         1 <0>         0.0830
     46 H13         6.3077    1.0265    4.6387 H         1 <0>         0.0560
     47 H14         5.3714    2.4158    3.9907 H         1 <0>         0.1372
     48 H15         7.5552    3.1451    4.9689 H         1 <0>         0.1351
     49 H16         6.1602    3.8388    5.8628 H         1 <0>         0.1388
     50 H17         6.4563    1.4778    8.6655 H         1 <0>         0.1475
     51 H18         5.5200    2.8671    8.0177 H         1 <0>         0.1323
     52 H19         4.2716    0.7485    7.6864 H         1 <0>         0.1247
     53 H20         5.6667    0.0547    6.7926 H         1 <0>         0.0635
     54 H21         8.9166    3.4967    6.8236 H         1 <0>         0.1623
     55 H22         7.6326    4.0367    7.9578 H         1 <0>         0.1598
     56 H23         9.9960    4.0588    9.2659 H         1 <0>         0.4452
     57 H24         8.7392    1.0891   10.9360 H         1 <0>         0.1343
     58 H25         9.9535   -0.2114   12.6364 H         1 <0>         0.1301
     59 H26        13.5168    1.9678   11.7719 H         1 <0>         0.1323
     60 H27        12.3144    3.2661   10.0615 H         1 <0>         0.1290
     61 H28        13.5929    0.3445   13.3990 H         1 <0>         0.0702
     62 H29        12.5164   -1.0609   13.0942 H         1 <0>         0.0750
     63 H30        12.0702    0.1600   14.3341 H         1 <0>         0.0757
     64 H31         2.6589    3.2812    2.3352 H         1 <0>         0.4623
     65 H32         1.4701    3.2640    0.8464 H         1 <0>         0.4274
     66 H33         7.7043    1.3575    6.5950 H         1 <0>         0.4458
@<TRIPOS>BOND
     1    1    2 1
     2    1   34 1
     3    1   35 1
     4    1   36 1
     5    2    3 1
     6    2   37 1
     7    2   38 1
     8    3    4 1
     9    3   39 1
    10    3   40 1
    11    4   10 am
    12    4    5 1
    13    5    6 2
    14    5   33 1
    15    6    7 1
    16    6   13 1
    17    7    8 2
    18    7    9 am
    19    9   10 am
    20    9   12 1
    21   10   11 2
    22   12   41 1
    23   12   42 1
    24   12   43 1
    25   13   14 2
    26   13   15 1
    27   15   16 1
    28   15   44 1
    29   15   45 1
    30   16   21 1
    31   16   17 1
    32   17   18 1
    33   17   46 1
    34   17   47 1
    35   18   19 1
    36   18   48 1
    37   18   49 1
    38   19   20 1
    39   19   22 1
    40   19   66 1
    41   20   21 1
    42   20   50 1
    43   20   51 1
    44   21   52 1
    45   21   53 1
    46   22   23 1
    47   22   54 1
    48   22   55 1
    49   23   24 2
    50   23   25 am
    51   25   26 1
    52   25   56 1
    53   26   31 ar
    54   26   27 ar
    55   27   28 ar
    56   27   57 1
    57   28   29 ar
    58   28   58 1
    59   29   30 ar
    60   29   32 1
    61   30   31 ar
    62   30   59 1
    63   31   60 1
    64   32   61 1
    65   32   62 1
    66   32   63 1
    67   33   64 1
    68   33   65 1
@<TRIPOS>MOLECULE
ZINC40686288
   61    66     0     0     0
SMALL
USER_CHARGES

@<TRIPOS>ATOM
      1 C1          0.1864   -4.9240    1.2501 C.ar      1 <0>        -0.0865
      2 C2          0.9750   -5.9483    1.7411 C.ar      1 <0>        -0.1026
      3 C3          0.3941   -7.0033    2.4250 C.ar      1 <0>         0.0463
      4 C4         -0.9855   -7.0290    2.6170 C.ar      1 <0>         0.0314
      5 C5         -1.7691   -5.9997    2.1223 C.ar      1 <0>        -0.0813
      6 C6         -1.1823   -4.9495    1.4405 C.ar      1 <0>        -0.1100
      7 C7         -2.0371   -3.8306    0.9034 C.3       1 <0>         0.1813
      8 N1         -2.4666   -4.1551   -0.4592 N.pl3     1 <0>        -0.7090
      9 C8         -3.2696   -3.2670   -1.1647 C.ar      1 <0>         0.3984
     10 C9         -3.6900   -3.5680   -2.4615 C.ar      1 <0>         0.0714
     11 C10        -4.4957   -2.6414   -3.1250 C.ar      1 <0>         0.3379
     12 N2         -4.8303   -1.5143   -2.5009 N.ar      1 <0>        -0.5353
     13 C11        -4.4120   -1.2688   -1.2758 C.ar      1 <0>         0.3042
     14 N3         -3.6544   -2.1189   -0.6125 N.ar      1 <0>        -0.5380
     15 N4         -4.9414   -2.8914   -4.4175 N.pl3     1 <0>        -0.6531
     16 C12        -4.1158   -2.5403   -5.5834 C.3       1 <0>         0.1246
     17 C13        -4.9771   -1.7383   -6.5646 C.3       1 <0>        -0.0227
     18 N5         -6.1890   -2.5018   -6.8878 N.4       1 <0>        -0.3789
     19 C14        -7.0122   -2.6669   -5.6832 C.3       1 <0>        -0.0288
     20 C15        -6.2494   -3.5201   -4.6582 C.3       1 <0>         0.1263
     21 C16        -6.9600   -1.7831   -7.9110 C.3       1 <0>         0.0505
     22 C17        -8.1389   -2.6218   -8.3329 C.ar      1 <0>        -0.1558
     23 C18        -8.0101   -3.5154   -9.3800 C.ar      1 <0>        -0.0773
     24 C19        -9.0885   -4.2872   -9.7704 C.ar      1 <0>        -0.1004
     25 C20       -10.3019   -4.1664   -9.1128 C.ar      1 <0>         0.0722
     26 C21       -10.4316   -3.2661   -8.0581 C.ar      1 <0>         0.0402
     27 C22        -9.3450   -2.5000   -7.6686 C.ar      1 <0>        -0.0834
     28 O1        -11.7090   -3.3334   -7.5818 O.3       1 <0>        -0.3010
     29 C23       -12.4712   -3.9841   -8.6157 C.3       1 <0>         0.2113
     30 O2        -11.4980   -4.7977   -9.2971 O.3       1 <0>        -0.2986
     31 N6         -3.3120   -4.7702   -3.0818 N.pl3     1 <0>        -0.8636
     32 O3         -1.3082   -8.1592    3.3111 O.3       1 <0>        -0.3064
     33 C24        -0.1656   -9.0265    3.1864 C.3       1 <0>         0.2126
     34 O4          0.9351   -8.1173    2.9991 O.3       1 <0>        -0.3053
     35 H1          0.6415   -4.1000    0.7206 H         1 <0>         0.1408
     36 H2          2.0442   -5.9258    1.5908 H         1 <0>         0.1407
     37 H3         -2.8388   -6.0170    2.2696 H         1 <0>         0.1371
     38 H4         -2.9127   -3.7046    1.5401 H         1 <0>         0.0812
     39 H5         -1.4601   -2.9059    0.8919 H         1 <0>         0.0838
     40 H6         -2.1905   -4.9898   -0.8689 H         1 <0>         0.4065
     41 H7         -4.7021   -0.3441   -0.7992 H         1 <0>         0.1975
     42 H8         -3.2671   -1.9363   -5.2627 H         1 <0>         0.1151
     43 H9         -3.7599   -3.4499   -6.0673 H         1 <0>         0.0809
     44 H10        -5.2568   -0.7880   -6.1099 H         1 <0>         0.1357
     45 H11        -4.4107   -1.5520   -7.4771 H         1 <0>         0.1381
     46 H12        -7.2303   -1.6885   -5.2552 H         1 <0>         0.1360
     47 H13        -7.9455   -3.1649   -5.9462 H         1 <0>         0.1353
     48 H14        -6.1052   -4.5269   -5.0503 H         1 <0>         0.0806
     49 H15        -6.8118   -3.5641   -3.7256 H         1 <0>         0.1140
     50 H16        -7.3150   -0.8376   -7.5010 H         1 <0>         0.1380
     51 H17        -6.3246   -1.5888   -8.7750 H         1 <0>         0.1421
     52 H18        -7.0652   -3.6104   -9.8942 H         1 <0>         0.1475
     53 H19        -8.9851   -4.9845  -10.5886 H         1 <0>         0.1497
     54 H20        -9.4414   -1.8043   -6.8481 H         1 <0>         0.1445
     55 H21       -13.2535   -4.6062   -8.1809 H         1 <0>         0.1445
     56 H22       -12.8995   -3.2484   -9.2964 H         1 <0>         0.0975
     57 H23        -2.6799   -5.3630   -2.6459 H         1 <0>         0.3975
     58 H24        -3.6830   -5.0077   -3.9460 H         1 <0>         0.4001
     59 H25        -0.0283   -9.6120    4.0954 H         1 <0>         0.1369
     60 H26        -0.2738   -9.6804    2.3211 H         1 <0>         0.0880
     61 H27        -5.9283   -3.4097   -7.2426 H         1 <0>         0.4202
@<TRIPOS>BOND
     1    1    6 ar
     2    1    2 ar
     3    1   35 1
     4    2    3 ar
     5    2   36 1
     6    3   34 1
     7    3    4 ar
     8    4    5 ar
     9    4   32 1
    10    5    6 ar
    11    5   37 1
    12    6    7 1
    13    7    8 1
    14    7   38 1
    15    7   39 1
    16    8    9 1
    17    8   40 1
    18    9   14 ar
    19    9   10 ar
    20   10   11 ar
    21   10   31 1
    22   11   12 ar
    23   11   15 1
    24   12   13 ar
    25   13   14 ar
    26   13   41 1
    27   15   20 1
    28   15   16 1
    29   16   17 1
    30   16   42 1
    31   16   43 1
    32   17   18 1
    33   17   44 1
    34   17   45 1
    35   18   19 1
    36   18   21 1
    37   18   61 1
    38   19   20 1
    39   19   46 1
    40   19   47 1
    41   20   48 1
    42   20   49 1
    43   21   22 1
    44   21   50 1
    45   21   51 1
    46   22   27 ar
    47   22   23 ar
    48   23   24 ar
    49   23   52 1
    50   24   25 ar
    51   24   53 1
    52   25   30 1
    53   25   26 ar
    54   26   27 ar
    55   26   28 1
    56   27   54 1
    57   28   29 1
    58   29   30 1
    59   29   55 1
    60   29   56 1
    61   31   57 1
    62   31   58 1
    63   32   33 1
    64   33   34 1
    65   33   59 1
    66   33   60 1
@<TRIPOS>MOLECULE
ZINC22790105
   57    61     0     0     0
SMALL
USER_CHARGES

@<TRIPOS>ATOM
      1 C1         -0.0166    1.3700    0.0096 C.2       1 <0>         0.0377
      2 C2          1.1154    2.0735    0.0025 C.2       1 <0>        -0.1388
      3 S1          2.3487    0.7819   -0.0162 S.3       1 <0>         0.3099
      4 C3          1.2327   -0.6046   -0.0130 C.cat     1 <0>         0.3123
      5 N1          0.0021   -0.0041    0.0020 N.am      1 <0>        -0.4327
      6 C4         -1.0817   -0.8363    0.0075 C.2       1 <0>         0.5262
      7 O1         -2.2102   -0.3701    0.0203 O.2       1 <0>        -0.4344
      8 C5         -0.8975   -2.2191   -0.0021 C.2       1 <0>        -0.2195
      9 C6          0.3792   -2.7393   -0.0171 C.2       1 <0>         0.1960
     10 N2          1.4131   -1.9019   -0.0217 N.pl3     1 <0>        -0.4729
     11 C7          0.5998   -4.2300   -0.0272 C.3       1 <0>         0.0733
     12 N3          1.2385   -4.6220   -1.2907 N.3       1 <0>        -0.5465
     13 C8          0.3361   -4.3976   -2.4287 C.3       1 <0>         0.0488
     14 C9          1.0648   -4.7423   -3.7297 C.3       1 <0>         0.0581
     15 N4          1.5104   -6.1419   -3.6826 N.3       1 <0>        -0.5217
     16 C10         2.4128   -6.3662   -2.5446 C.3       1 <0>         0.0479
     17 C11         1.6841   -6.0216   -1.2435 C.3       1 <0>         0.0605
     18 C12         2.1491   -6.5338   -4.9461 C.3       1 <0>         0.0435
     19 C13         2.3697   -8.0246   -4.9561 C.2       1 <0>         0.5095
     20 O2          2.0285   -8.6945   -4.0045 O.2       1 <0>        -0.4816
     21 N5          2.9462   -8.6133   -6.0227 N.am      1 <0>        -0.6191
     22 C14         3.1492   -9.9850   -6.0320 C.2       1 <0>         0.0285
     23 C15         3.7250  -10.7525   -7.0272 C.2       1 <0>        -0.2184
     24 C16         3.8239  -12.1918   -6.7908 C.2       1 <0>        -0.0908
     25 C17         3.3269  -12.5883   -5.6053 C.2       1 <0>        -0.2456
     26 S2          2.7592  -11.0934   -4.8353 S.3       1 <0>         0.3216
     27 C18         3.4497  -14.0758   -5.4150 C.3       1 <0>        -0.0323
     28 C19         3.7090  -14.6308   -6.8332 C.3       1 <0>        -0.1163
     29 C20         4.3527  -13.4169   -7.5335 C.3       1 <0>        -0.0611
     30 C21         4.2160  -10.1478   -8.2694 C.2       1 <0>         0.5832
     31 O3          5.3671   -9.7592   -8.3436 O.2       1 <0>        -0.5342
     32 N6          3.3928  -10.0222   -9.3291 N.am      1 <0>        -0.8475
     33 H1         -0.9639    1.8883    0.0260 H         1 <0>         0.2204
     34 H2          1.2514    3.1449    0.0067 H         1 <0>         0.2509
     35 H3         -1.7519   -2.8798    0.0025 H         1 <0>         0.2049
     36 H4          1.2441   -4.5076    0.8071 H         1 <0>         0.1250
     37 H5         -0.3588   -4.7398    0.0688 H         1 <0>         0.1015
     38 H6         -0.5439   -5.0324   -2.3256 H         1 <0>         0.0639
     39 H7          0.0301   -3.3517   -2.4494 H         1 <0>         0.0748
     40 H8          0.3882   -4.6043   -4.5730 H         1 <0>         0.0899
     41 H9          1.9296   -4.0891   -3.8462 H         1 <0>         0.0467
     42 H10         2.7188   -7.4122   -2.5239 H         1 <0>         0.1072
     43 H11         3.2928   -5.7315   -2.6476 H         1 <0>         0.0439
     44 H12         2.3607   -6.1596   -0.4002 H         1 <0>         0.0920
     45 H13         0.8193   -6.6748   -1.1270 H         1 <0>         0.0630
     46 H14         1.5048   -6.2563   -5.7803 H         1 <0>         0.1161
     47 H15         3.1077   -6.0240   -5.0421 H         1 <0>         0.0769
     48 H16         3.2191   -8.0775   -6.7838 H         1 <0>         0.4188
     49 H17         4.2877  -14.3069   -4.7574 H         1 <0>         0.0858
     50 H18         2.5239  -14.4848   -5.0103 H         1 <0>         0.0805
     51 H19         4.3988  -15.4741   -6.8019 H         1 <0>         0.0860
     52 H20         2.7745  -14.9110   -7.3192 H         1 <0>         0.0779
     53 H21         4.0522  -13.3822   -8.5807 H         1 <0>         0.0729
     54 H22         5.4386  -13.4672   -7.4533 H         1 <0>         0.0832
     55 H23         2.4754  -10.3319   -9.2700 H         1 <0>         0.4037
     56 H24         3.7176   -9.6221  -10.1509 H         1 <0>         0.4039
     57 H25         2.3153   -2.2580   -0.0323 H         1 <0>         0.4666
@<TRIPOS>BOND
     1    1    5 1
     2    1    2 2
     3    1   33 1
     4    2    3 1
     5    2   34 1
     6    3    4 1
     7    4   10 2
     8    4    5 1
     9    5    6 am
    10    6    7 2
    11    6    8 1
    12    8    9 2
    13    8   35 1
    14    9   10 1
    15    9   11 1
    16   10   57 1
    17   11   12 1
    18   11   36 1
    19   11   37 1
    20   12   17 1
    21   12   13 1
    22   13   14 1
    23   13   38 1
    24   13   39 1
    25   14   15 1
    26   14   40 1
    27   14   41 1
    28   15   16 1
    29   15   18 1
    30   16   17 1
    31   16   42 1
    32   16   43 1
    33   17   44 1
    34   17   45 1
    35   18   19 1
    36   18   46 1
    37   18   47 1
    38   19   20 2
    39   19   21 am
    40   21   22 1
    41   21   48 1
    42   22   26 1
    43   22   23 2
    44   23   24 1
    45   23   30 1
    46   24   29 1
    47   24   25 2
    48   25   26 1
    49   25   27 1
    50   27   28 1
    51   27   49 1
    52   27   50 1
    53   28   29 1
    54   28   51 1
    55   28   52 1
    56   29   53 1
    57   29   54 1
    58   30   31 2
    59   30   32 am
    60   32   55 1
    61   32   56 1
@<TRIPOS>MOLECULE
ZINC63778284
   58    62     0     0     0
SMALL
USER_CHARGES

@<TRIPOS>ATOM
      1 C1         -0.0173    1.4248    0.0099 C.3       1 <0>         0.0228
      2 O1          0.0021   -0.0041    0.0020 O.3       1 <0>        -0.3025
      3 C2         -1.1998   -0.6372    0.0101 C.ar      1 <0>         0.1252
      4 C3         -2.3730    0.1044    0.0195 C.ar      1 <0>        -0.1792
      5 C4         -3.5950   -0.5330    0.0277 C.ar      1 <0>        -0.0785
      6 C5         -3.6547   -1.9289    0.0261 C.ar      1 <0>        -0.0614
      7 C6         -2.4734   -2.6756    0.0162 C.ar      1 <0>        -0.1219
      8 C7         -1.2520   -2.0300    0.0031 C.ar      1 <0>         0.0902
      9 O2         -0.1005   -2.7535   -0.0113 O.3       1 <0>        -0.3040
     10 C8         -0.2286   -4.1767   -0.0178 C.3       1 <0>         0.0267
     11 C9         -4.9610   -2.6127    0.0354 C.2       1 <0>         0.2362
     12 N1         -5.0307   -3.8821    0.0394 N.2       1 <0>        -0.5022
     13 C10        -6.3451   -4.5550    0.0509 C.3       1 <0>         0.2401
     14 H1         -6.5793   -4.9437    1.0419 H         1 <0>         0.1067
     15 S1         -7.4575   -3.1500   -0.3936 S.3       1 <0>        -0.3202
     16 C11        -6.2571   -1.8152    0.0468 C.3       1 <0>        -0.0709
     17 C12        -6.4060   -5.6469   -0.9859 C.2       1 <0>        -0.3908
     18 C13        -6.6386   -6.9755   -0.7155 C.2       1 <0>         0.5301
     19 N2         -6.6378   -7.7289   -1.8531 N.pl3     1 <0>        -0.4112
     20 C14        -6.3821   -6.8237   -2.9835 C.3       1 <0>         0.0623
     21 C15        -6.2412   -5.4544   -2.3526 C.2       1 <0>         0.4148
     22 O3         -6.0262   -4.4019   -2.9245 O.2       1 <0>        -0.4397
     23 N3         -6.8424   -9.1127   -1.9301 N.am      1 <0>        -0.4898
     24 C16        -8.0170   -9.5962   -2.3808 C.2       1 <0>         0.5622
     25 O4         -8.8996   -8.8309   -2.7208 O.2       1 <0>        -0.4494
     26 C17        -8.2313  -11.0448   -2.4614 C.2       1 <0>        -0.0227
     27 C18        -9.3631  -11.6956   -2.9015 C.ar      1 <0>        -0.0609
     28 C19       -10.6117  -11.2338   -3.3894 C.ar      1 <0>        -0.0519
     29 C20       -11.5653  -12.1154   -3.7594 C.ar      1 <0>        -0.1141
     30 C21       -11.3780  -13.5051   -3.6831 C.ar      1 <0>         0.0389
     31 C22       -10.2264  -14.0479   -3.2324 C.ar      1 <0>        -0.1878
     32 C23        -9.1336  -13.1582   -2.8090 C.ar      1 <0>         0.3236
     33 N4         -7.9413  -13.4046   -2.3436 N.pl3     1 <0>        -0.5489
     34 C24        -7.2531  -12.1357   -2.0849 C.3       1 <0>         0.0621
     35 N5         -6.8452   -7.4793    0.5394 N.pl3     1 <0>        -0.8311
     36 H2          1.0053    1.8021    0.0021 H         1 <0>         0.1041
     37 H3         -0.5445    1.7859   -0.8732 H         1 <0>         0.0586
     38 H4         -0.5275    1.7763    0.9067 H         1 <0>         0.0585
     39 H5         -2.3282    1.1835    0.0207 H         1 <0>         0.1437
     40 H6         -4.5063    0.0466    0.0357 H         1 <0>         0.1353
     41 H7         -2.5153   -3.7548    0.0149 H         1 <0>         0.1468
     42 H8          0.7623   -4.6307   -0.0293 H         1 <0>         0.1013
     43 H9         -0.7648   -4.4973    0.8755 H         1 <0>         0.0545
     44 H10        -0.7811   -4.4878   -0.9044 H         1 <0>         0.0547
     45 H11        -6.4619   -1.4066    1.0363 H         1 <0>         0.1193
     46 H12        -6.2452   -1.0295   -0.7087 H         1 <0>         0.1262
     47 H13        -5.4623   -7.1060   -3.4959 H         1 <0>         0.1167
     48 H14        -7.2231   -6.8346   -3.6768 H         1 <0>         0.1156
     49 H15        -6.1388   -9.7229   -1.6591 H         1 <0>         0.4244
     50 H16       -10.8010  -10.1732   -3.4650 H         1 <0>         0.1702
     51 H17       -12.5077  -11.7376   -4.1277 H         1 <0>         0.1626
     52 H18       -12.1791  -14.1594   -3.9937 H         1 <0>         0.1703
     53 H19       -10.1092  -15.1204   -3.1833 H         1 <0>         0.1722
     54 H20        -6.3546  -12.0619   -2.6975 H         1 <0>         0.1856
     55 H21        -6.9950  -12.0600   -1.0286 H         1 <0>         0.1832
     56 H22        -6.8330   -6.8873    1.3078 H         1 <0>         0.4282
     57 H23        -7.0040   -8.4284    0.6609 H         1 <0>         0.4028
     58 H24        -7.5671  -14.2872   -2.1956 H         1 <0>         0.4624
@<TRIPOS>BOND
     1    1    2 1
     2    1   36 1
     3    1   37 1
     4    1   38 1
     5    2    3 1
     6    3    8 ar
     7    3    4 ar
     8    4    5 ar
     9    4   39 1
    10    5    6 ar
    11    5   40 1
    12    6    7 ar
    13    6   11 1
    14    7    8 ar
    15    7   41 1
    16    8    9 1
    17    9   10 1
    18   10   42 1
    19   10   43 1
    20   10   44 1
    21   11   16 1
    22   11   12 2
    23   12   13 1
    24   13   14 1
    25   13   15 1
    26   13   17 1
    27   15   16 1
    28   16   45 1
    29   16   46 1
    30   17   21 1
    31   17   18 2
    32   18   19 1
    33   18   35 1
    34   19   20 1
    35   19   23 1
    36   20   21 1
    37   20   47 1
    38   20   48 1
    39   21   22 2
    40   23   24 am
    41   23   49 1
    42   24   25 2
    43   24   26 1
    44   26   34 1
    45   26   27 2
    46   27   32 ar
    47   27   28 ar
    48   28   29 ar
    49   28   50 1
    50   29   30 ar
    51   29   51 1
    52   30   31 ar
    53   30   52 1
    54   31   32 ar
    55   31   53 1
    56   32   33 2
    57   33   34 1
    58   33   58 1
    59   34   54 1
    60   34   55 1
    61   35   56 1
    62   35   57 1
@<TRIPOS>MOLECULE
ZINC12033076
   48    50     0     0     0
SMALL
USER_CHARGES
N-[4-amino-6-oxo-2-[2-oxo-2-[[2-(trifluoromethyl)phenyl]amino]ethyl]sulfanyl-1H-pyrimidin-5-yl]-4-fluoro-benzamide
@<TRIPOS>ATOM
      1 C1          1.2245   -2.1034   -0.6116 C.ar      1 <0>        -0.1359
      2 C2          0.0561   -2.7287   -1.0072 C.ar      1 <0>        -0.0621
      3 C3         -1.1446   -2.0486   -0.9548 C.ar      1 <0>        -0.1356
      4 C4         -1.1781   -0.7354   -0.5039 C.ar      1 <0>         0.1990
      5 C5         -0.0033   -0.1105   -0.1071 C.ar      1 <0>        -0.2182
      6 C6          1.1953   -0.7944   -0.1672 C.ar      1 <0>        -0.0503
      7 C7         -0.0351    1.3142    0.3829 C.3       1 <0>         0.5083
      8 F1          1.2602    1.7197    0.7220 F         1 <0>        -0.1701
      9 F2         -0.5340    2.1437   -0.6272 F         1 <0>        -0.1788
     10 F3         -0.8609    1.4019    1.5087 F         1 <0>        -0.1745
     11 N1         -2.3932   -0.0436   -0.4492 N.am      1 <0>        -0.6661
     12 C8         -3.5534   -0.7248   -0.3691 C.2       1 <0>         0.5379
     13 O1         -3.5410   -1.9318   -0.2507 O.2       1 <0>        -0.4929
     14 C9         -4.8660    0.0133   -0.4266 C.3       1 <0>        -0.1514
     15 S1         -6.2296   -1.1696   -0.2950 S.3       1 <0>         0.1044
     16 C10        -7.6010   -0.0672   -0.3876 C.2       1 <0>         0.3870
     17 N2         -8.8654   -0.5700   -0.3238 N.am      1 <0>        -0.6172
     18 H1         -9.0018   -1.5256   -0.2287 H         1 <0>         0.4231
     19 C11        -9.9287    0.2580   -0.3930 C.2       1 <0>         0.5483
     20 O2        -11.0657   -0.1844   -0.3362 O.2       1 <0>        -0.5199
     21 C12        -9.7050    1.6358   -0.5309 C.2       1 <0>        -0.1368
     22 C13        -8.3935    2.0959   -0.5910 C.2       1 <0>         0.4598
     23 N3         -7.3812    1.2249   -0.5116 N.2       1 <0>        -0.5697
     24 N4         -8.1373    3.4483   -0.7271 N.pl3     1 <0>        -0.8238
     25 N5        -10.7861    2.5351   -0.6073 N.am      1 <0>        -0.6425
     26 C14       -11.7116    2.3953   -1.5770 C.2       1 <0>         0.5643
     27 O3        -11.5670    1.5488   -2.4382 O.2       1 <0>        -0.5086
     28 C15       -12.9016    3.2702   -1.5938 C.ar      1 <0>        -0.1422
     29 C16       -13.0730    4.2392   -0.6029 C.ar      1 <0>        -0.0587
     30 C17       -14.1825    5.0568   -0.6266 C.ar      1 <0>        -0.1602
     31 C18       -15.1331    4.9109   -1.6254 C.ar      1 <0>         0.1259
     32 C19       -14.9707    3.9466   -2.6084 C.ar      1 <0>        -0.1593
     33 C20       -13.8622    3.1275   -2.5975 C.ar      1 <0>        -0.0280
     34 F4        -16.2212    5.7114   -1.6410 F         1 <0>        -0.1325
     35 H2          2.1624   -2.6372   -0.6542 H         1 <0>         0.1387
     36 H3          0.0828   -3.7499   -1.3577 H         1 <0>         0.1394
     37 H4         -2.0566   -2.5373   -1.2645 H         1 <0>         0.1607
     38 H5          2.1101   -0.3074    0.1367 H         1 <0>         0.1441
     39 H6         -2.4005    0.9262   -0.4689 H         1 <0>         0.4165
     40 H7         -4.9200    0.7234    0.3986 H         1 <0>         0.1407
     41 H8         -4.9402    0.5495   -1.3728 H         1 <0>         0.1419
     42 H9         -8.8729    4.0782   -0.7809 H         1 <0>         0.4138
     43 H10        -7.2220    3.7667   -0.7688 H         1 <0>         0.4103
     44 H11       -10.8646    3.2551    0.0379 H         1 <0>         0.3995
     45 H12       -12.3355    4.3505    0.1783 H         1 <0>         0.1351
     46 H13       -14.3138    5.8095    0.1367 H         1 <0>         0.1438
     47 H14       -15.7140    3.8374   -3.3843 H         1 <0>         0.1452
     48 H15       -13.7365    2.3770   -3.3638 H         1 <0>         0.1477
@<TRIPOS>BOND
     1    1    6 ar
     2    1    2 ar
     3    1   35 1
     4    2    3 ar
     5    2   36 1
     6    3    4 ar
     7    3   37 1
     8    4    5 ar
     9    4   11 1
    10    5    6 ar
    11    5    7 1
    12    6   38 1
    13    7    8 1
    14    7    9 1
    15    7   10 1
    16   11   12 am
    17   11   39 1
    18   12   13 2
    19   12   14 1
    20   14   15 1
    21   14   40 1
    22   14   41 1
    23   15   16 1
    24   16   23 2
    25   16   17 1
    26   17   18 1
    27   17   19 am
    28   19   20 2
    29   19   21 1
    30   21   22 2
    31   21   25 1
    32   22   23 1
    33   22   24 1
    34   24   42 1
    35   24   43 1
    36   25   26 am
    37   25   44 1
    38   26   27 2
    39   26   28 1
    40   28   33 ar
    41   28   29 ar
    42   29   30 ar
    43   29   45 1
    44   30   31 ar
    45   30   46 1
    46   31   32 ar
    47   31   34 1
    48   32   33 ar
    49   32   47 1
    50   33   48 1
@<TRIPOS>MOLECULE
ZINC27546096
   55    56     0     0     0
SMALL
USER_CHARGES
3-[[4,6-bis(isopropylamino)-1,3,5-triazin-2-yl]amino]-1-(2,5-dimethylphenyl)thiourea
@<TRIPOS>ATOM
      1 C1         11.0197    1.7429   -0.3110 C.3       1 <0>        -0.1153
      2 C2          9.8409    1.0760    0.3499 C.ar      1 <0>        -0.0805
      3 C3          9.9600   -0.2131    0.8366 C.ar      1 <0>        -0.1104
      4 C4          8.8807   -0.8286    1.4433 C.ar      1 <0>        -0.1122
      5 C5          7.6796   -0.1574    1.5651 C.ar      1 <0>        -0.0951
      6 C6          7.5568    1.1370    1.0774 C.ar      1 <0>         0.1353
      7 C7          8.6414    1.7506    0.4638 C.ar      1 <0>        -0.0704
      8 N1          6.3417    1.8194    1.1988 N.pl3     1 <0>        -0.6429
      9 C8          6.3288    3.1075    1.5952 C.2       1 <0>         0.5620
     10 S1          7.7829    3.8670    2.0848 S.2       1 <0>        -0.5876
     11 N2          5.1712    3.7976    1.6061 N.pl3     1 <0>        -0.4549
     12 N3          3.9813    3.1761    1.2054 N.pl3     1 <0>        -0.5224
     13 C9          2.7959    3.8828    1.2166 C.ar      1 <0>         0.6586
     14 N4          2.7833    5.1535    1.6071 N.ar      1 <0>        -0.6848
     15 C10         1.6416    5.8344    1.6175 C.ar      1 <0>         0.6635
     16 N5          0.5133    5.2461    1.2325 N.ar      1 <0>        -0.6793
     17 C11         0.5251    3.9740    0.8467 C.ar      1 <0>         0.6644
     18 N6          1.6668    3.2931    0.8363 N.ar      1 <0>        -0.6672
     19 N7         -0.6470    3.3619    0.4515 N.pl3     1 <0>        -0.6960
     20 C12        -0.6330    1.9617    0.0206 C.3       1 <0>         0.1629
     21 C13         0.2897    1.8100   -1.1904 C.3       1 <0>        -0.1718
     22 C14        -0.1234    1.0815    1.1635 C.3       1 <0>        -0.1717
     23 N8          1.6286    7.1536    2.0225 N.pl3     1 <0>        -0.6929
     24 C15         2.8729    7.8037    2.4410 C.3       1 <0>         0.1547
     25 C16         3.6062    8.3415    1.2106 C.3       1 <0>        -0.1638
     26 C17         2.5502    8.9608    3.3887 C.3       1 <0>        -0.1630
     27 C18         6.5040   -0.8289    2.2269 C.3       1 <0>        -0.1142
     28 H1         11.8787    1.0558   -0.3083 H         1 <0>         0.0654
     29 H2         11.2803    2.6579    0.2411 H         1 <0>         0.0737
     30 H3         10.7605    2.0018   -1.3482 H         1 <0>         0.0683
     31 H4         10.8979   -0.7401    0.7423 H         1 <0>         0.1242
     32 H5          8.9768   -1.8354    1.8220 H         1 <0>         0.1264
     33 H6          8.5477    2.7556    0.0795 H         1 <0>         0.1385
     34 H7          5.3967    1.3047    0.9707 H         1 <0>         0.4151
     35 H8          5.1607    4.8489    1.9296 H         1 <0>         0.4916
     36 H9          3.9918    2.1248    0.8818 H         1 <0>         0.4539
     37 H10        -1.5917    3.9253    0.4600 H         1 <0>         0.4411
     38 H11        -1.6665    1.6933   -0.2438 H         1 <0>         0.0878
     39 H12         0.3002    0.7587   -1.5139 H         1 <0>         0.0631
     40 H13         1.3090    2.1194   -0.9158 H         1 <0>         0.0835
     41 H14        -0.0767    2.4429   -2.0121 H         1 <0>         0.0499
     42 H15        -0.1129    0.0302    0.8400 H         1 <0>         0.0631
     43 H16        -0.7868    1.1906    2.0341 H         1 <0>         0.0500
     44 H17         0.8959    1.3909    1.4381 H         1 <0>         0.0835
     45 H18         0.6839    7.7170    2.0311 H         1 <0>         0.4371
     46 H19         3.4805    7.0423    2.9520 H         1 <0>         0.0903
     47 H20         4.5405    8.8296    1.5249 H         1 <0>         0.0689
     48 H21         2.9670    9.0719    0.6930 H         1 <0>         0.0560
     49 H22         3.8383    7.5096    0.5294 H         1 <0>         0.0583
     50 H23         3.4846    9.4489    3.7029 H         1 <0>         0.0771
     51 H24         2.0231    8.5741    4.2733 H         1 <0>         0.0622
     52 H25         1.9110    9.6912    2.8712 H         1 <0>         0.0630
     53 H26         5.6441   -0.1430    2.2302 H         1 <0>         0.0531
     54 H27         6.7671   -1.0921    3.2620 H         1 <0>         0.0757
     55 H28         6.2428   -1.7417    1.6715 H         1 <0>         0.0740
@<TRIPOS>BOND
     1    1    2 1
     2    1   28 1
     3    1   29 1
     4    1   30 1
     5    2    7 ar
     6    2    3 ar
     7    3    4 ar
     8    3   31 1
     9    4    5 ar
    10    4   32 1
    11    5    6 ar
    12    5   27 1
    13    6    7 ar
    14    6    8 1
    15    7   33 1
    16    8    9 1
    17    8   34 1
    18    9   10 2
    19    9   11 1
    20   11   12 1
    21   11   35 1
    22   12   13 1
    23   12   36 1
    24   13   18 ar
    25   13   14 ar
    26   14   15 ar
    27   15   16 ar
    28   15   23 1
    29   16   17 ar
    30   17   18 ar
    31   17   19 1
    32   19   20 1
    33   19   37 1
    34   20   21 1
    35   20   22 1
    36   20   38 1
    37   21   39 1
    38   21   40 1
    39   21   41 1
    40   22   42 1
    41   22   43 1
    42   22   44 1
    43   23   24 1
    44   23   45 1
    45   24   25 1
    46   24   26 1
    47   24   46 1
    48   25   47 1
    49   25   48 1
    50   25   49 1
    51   26   50 1
    52   26   51 1
    53   26   52 1
    54   27   53 1
    55   27   54 1
    56   27   55 1
@<TRIPOS>MOLECULE
ZINC39007078
   58    61     0     0     0
SMALL
USER_CHARGES

@<TRIPOS>ATOM
      1 C1         -2.5447   -6.7231    8.4849 C.3       1 <0>        -0.1498
      2 C2         -1.7585   -5.5232    9.0167 C.3       1 <0>        -0.0871
      3 C3         -0.7271   -5.1077    7.9996 C.ar      1 <0>        -0.1049
      4 C4          0.5663   -5.5839    8.0922 C.ar      1 <0>        -0.1009
      5 C5          1.5131   -5.2032    7.1595 C.ar      1 <0>        -0.1270
      6 C6          1.1689   -4.3452    6.1308 C.ar      1 <0>        -0.1061
      7 C7         -0.1224   -3.8660    6.0324 C.ar      1 <0>        -0.1175
      8 C8         -1.0772   -4.2503    6.9651 C.ar      1 <0>         0.1411
      9 N1         -2.3879   -3.7707    6.8651 N.am      1 <0>        -0.6647
     10 C9         -2.6167   -2.5272    6.3984 C.2       1 <0>         0.5308
     11 O1         -1.6954   -1.8558    5.9843 O.2       1 <0>        -0.4955
     12 C10        -4.0172   -1.9709    6.3913 C.3       1 <0>        -0.1251
     13 S1         -3.9968   -0.2901    5.7093 S.3       1 <0>        -0.1717
     14 C11        -5.7054    0.2854    5.9092 C.3       1 <0>         0.1527
     15 H1         -6.0810    0.0052    6.8933 H         1 <0>         0.1351
     16 N2         -6.5641   -0.2978    4.8533 N.3       1 <0>        -0.4973
     17 N3         -7.5083    0.7777    4.5116 N.3       1 <0>        -0.4754
     18 C12        -6.6664    2.0003    4.5885 C.3       1 <0>         0.2312
     19 H2         -6.0873    2.1229    3.6732 H         1 <0>         0.0974
     20 N4         -5.7687    1.7522    5.7417 N.3       1 <0>        -0.3322
     21 N5         -4.4462    2.3068    5.5018 N.3       1 <0>        -0.6358
     22 C13        -7.5358    3.2340    4.8398 C.3       1 <0>        -0.0210
     23 H3         -8.0243    3.1675    5.8119 H         1 <0>         0.1561
     24 C14        -8.5629    3.4004    3.7340 C.2       1 <0>        -0.1417
     25 C15        -8.2562    4.5917    3.1853 C.2       1 <0>         0.0106
     26 N6         -7.1895    5.1454    3.8194 N.2       1 <0>        -0.1600
     27 N7         -6.7325    4.4642    4.7447 N.2       1 <0>        -0.1132
     28 C16        -8.9805    5.2117    2.0484 C.ar      1 <0>        -0.0400
     29 C17       -10.0683    4.5583    1.4725 C.ar      1 <0>        -0.0958
     30 C18       -10.7386    5.1398    0.4155 C.ar      1 <0>        -0.1220
     31 C19       -10.3325    6.3689   -0.0723 C.ar      1 <0>        -0.0738
     32 C20        -9.2534    7.0219    0.4955 C.ar      1 <0>        -0.1224
     33 C21        -8.5790    6.4521    1.5564 C.ar      1 <0>        -0.0819
     34 C22       -11.0681    6.9986   -1.2270 C.3       1 <0>        -0.1192
     35 H4         -1.8616   -7.5523    8.3006 H         1 <0>         0.0611
     36 H5         -3.2908   -7.0237    9.2206 H         1 <0>         0.0624
     37 H6         -3.0419   -6.4483    7.5546 H         1 <0>         0.0505
     38 H7         -2.4416   -4.6940    9.2010 H         1 <0>         0.0684
     39 H8         -1.2613   -5.7980    9.9470 H         1 <0>         0.0787
     40 H9          0.8382   -6.2541    8.8943 H         1 <0>         0.1268
     41 H10         2.5239   -5.5764    7.2345 H         1 <0>         0.1249
     42 H11         1.9109   -4.0494    5.4040 H         1 <0>         0.1266
     43 H12        -0.3905   -3.1958    5.2291 H         1 <0>         0.1398
     44 H13        -3.1318   -4.3332    7.1317 H         1 <0>         0.4117
     45 H14        -4.6567   -2.6046    5.7767 H         1 <0>         0.1228
     46 H15        -4.4031   -1.9449    7.4104 H         1 <0>         0.1205
     47 H16        -6.0166   -0.5671    4.0497 H         1 <0>         0.3674
     48 H17        -8.2663    0.8182    5.1763 H         1 <0>         0.3665
     49 H18        -3.8068    2.0489    6.2385 H         1 <0>         0.3715
     50 H19        -4.0929    2.0224    4.6004 H         1 <0>         0.3261
     51 H20        -9.3544    2.7216    3.4526 H         1 <0>         0.1771
     52 H21       -10.3860    3.5985    1.8523 H         1 <0>         0.1244
     53 H22       -11.5816    4.6342   -0.0319 H         1 <0>         0.1271
     54 H23        -8.9403    7.9811    0.1105 H         1 <0>         0.1276
     55 H24        -7.7394    6.9649    2.0019 H         1 <0>         0.1345
     56 H25       -11.8778    7.6210   -0.8460 H         1 <0>         0.0735
     57 H26       -10.3785    7.6134   -1.8053 H         1 <0>         0.0688
     58 H27       -11.4803    6.2167   -1.8650 H         1 <0>         0.0682
@<TRIPOS>BOND
     1    1    2 1
     2    1   35 1
     3    1   36 1
     4    1   37 1
     5    2    3 1
     6    2   38 1
     7    2   39 1
     8    3    8 ar
     9    3    4 ar
    10    4    5 ar
    11    4   40 1
    12    5    6 ar
    13    5   41 1
    14    6    7 ar
    15    6   42 1
    16    7    8 ar
    17    7   43 1
    18    8    9 1
    19    9   10 am
    20    9   44 1
    21   10   11 2
    22   10   12 1
    23   12   13 1
    24   12   45 1
    25   12   46 1
    26   13   14 1
    27   14   15 1
    28   14   20 1
    29   14   16 1
    30   16   17 1
    31   16   47 1
    32   17   18 1
    33   17   48 1
    34   18   19 1
    35   18   20 1
    36   18   22 1
    37   20   21 1
    38   21   49 1
    39   21   50 1
    40   22   23 1
    41   22   27 1
    42   22   24 1
    43   24   25 2
    44   24   51 1
    45   25   26 1
    46   25   28 1
    47   26   27 2
    48   28   33 ar
    49   28   29 ar
    50   29   30 ar
    51   29   52 1
    52   30   31 ar
    53   30   53 1
    54   31   32 ar
    55   31   34 1
    56   32   33 ar
    57   32   54 1
    58   33   55 1
    59   34   56 1
    60   34   57 1
    61   34   58 1
@<TRIPOS>MOLECULE
ZINC45068142
   33    33     0     0     0
SMALL
USER_CHARGES

@<TRIPOS>ATOM
      1 C1          0.0580    1.3643    0.4443 C.ar      1 <0>        -0.1668
      2 C2          1.2675    2.0312    0.3887 C.ar      1 <0>         0.0070
      3 C3          2.4001    1.3760   -0.0604 C.ar      1 <0>        -0.1368
      4 C4          2.3261    0.0517   -0.4548 C.ar      1 <0>         0.0420
      5 C5          1.1198   -0.6202   -0.4011 C.ar      1 <0>        -0.7260
      6 C6         -0.0193    0.0352    0.0491 C.ar      1 <0>         0.3212
      7 N1         -1.2400   -0.6414    0.1045 N.pl3     1 <0>        -0.8600
      8 S1          1.0264   -2.3064   -0.9040 S.o2      1 <0>         2.6868
      9 O1         -0.3379   -2.5652   -1.2056 O.2       1 <0>        -0.9523
     10 O2          2.0670   -2.5060   -1.8509 O.2       1 <0>        -0.9250
     11 N2          1.4034   -3.2326    0.4159 N.pl3     1 <0>        -1.1157
     12 C7          0.5275   -3.2254    1.5902 C.3       1 <0>         0.1204
     13 C8          0.8748   -4.4109    2.4928 C.3       1 <0>        -0.1202
     14 C9         -0.0400   -4.4034    3.7192 C.3       1 <0>        -0.6284
     15 S2          0.3718   -5.8090    4.7894 S.o2      1 <0>         2.6169
     16 O3          0.0269   -7.0295    4.1487 O.2       1 <0>        -0.9580
     17 O4          1.6611   -5.6290    5.3592 O.2       1 <0>        -0.9586
     18 N3         -0.6750   -5.6920    6.0672 N.pl3     1 <0>        -1.2510
     19 Br1         3.8770   -0.8392   -1.0686 Br        1 <0>         0.0109
     20 Br2         1.3739    3.8409    0.9266 Br        1 <0>        -0.0187
     21 H1         -0.8250    1.8751    0.7988 H         1 <0>         0.1490
     22 H2          3.3439    1.8993   -0.1036 H         1 <0>         0.1507
     23 H3         -2.0721   -0.1450    0.0599 H         1 <0>         0.4111
     24 H4         -1.2556   -1.6077    0.1877 H         1 <0>         0.4113
     25 H5          2.2042   -3.7800    0.4116 H         1 <0>         0.4253
     26 H6          0.6669   -2.2957    2.1417 H         1 <0>         0.0730
     27 H7         -0.5111   -3.3052    1.2692 H         1 <0>         0.0831
     28 H8          0.7354   -5.3407    1.9412 H         1 <0>         0.0961
     29 H9          1.9134   -4.3311    2.8138 H         1 <0>         0.0947
     30 H10         0.0994   -3.4737    4.2708 H         1 <0>         0.1408
     31 H11        -1.0786   -4.4832    3.3982 H         1 <0>         0.1416
     32 H12        -1.3201   -4.9684    6.1010 H         1 <0>         0.4132
     33 H13        -0.6430   -6.3470    6.7819 H         1 <0>         0.4226
@<TRIPOS>BOND
     1    1    6 ar
     2    1    2 ar
     3    1   21 1
     4    2    3 ar
     5    2   20 1
     6    3    4 ar
     7    3   22 1
     8    4    5 ar
     9    4   19 1
    10    5    6 ar
    11    5    8 1
    12    6    7 1
    13    7   23 1
    14    7   24 1
    15    8    9 2
    16    8   10 2
    17    8   11 1
    18   11   12 1
    19   11   25 1
    20   12   13 1
    21   12   26 1
    22   12   27 1
    23   13   14 1
    24   13   28 1
    25   13   29 1
    26   14   15 1
    27   14   30 1
    28   14   31 1
    29   15   16 2
    30   15   17 2
    31   15   18 1
    32   18   32 1
    33   18   33 1
@<TRIPOS>MOLECULE
ZINC66238839
   52    54     0     0     0
SMALL
USER_CHARGES

@<TRIPOS>ATOM
      1 C1         -0.0184    1.5028    0.0103 C.3       1 <0>        -0.1171
      2 C2          0.0021   -0.0041    0.0020 C.ar      1 <0>        -0.0816
      3 C3          0.0057   -0.6887   -1.1989 C.ar      1 <0>        -0.1224
      4 C4          0.0245   -2.0709   -1.2065 C.ar      1 <0>        -0.1048
      5 C5          0.0400   -2.7685   -0.0132 C.ar      1 <0>        -0.0889
      6 C6          0.0373   -2.0839    1.1877 C.ar      1 <0>        -0.0815
      7 C7          0.0229   -0.7016    1.1953 C.ar      1 <0>        -0.1230
      8 C8          0.0595   -4.2753   -0.0215 C.3       1 <0>         0.1763
      9 H1          0.4932   -4.6279   -0.9572 H         1 <0>         0.0760
     10 C9         -1.3486   -4.7966    0.1073 C.ar      1 <0>        -0.1102
     11 C10        -1.9587   -4.8404    1.3470 C.ar      1 <0>        -0.0898
     12 C11        -3.2504   -5.3185    1.4652 C.ar      1 <0>        -0.1219
     13 C12        -3.9321   -5.7524    0.3436 C.ar      1 <0>        -0.1162
     14 C13        -3.3223   -5.7078   -0.8962 C.ar      1 <0>        -0.1215
     15 C14        -2.0322   -5.2256   -1.0150 C.ar      1 <0>        -0.1105
     16 O1          0.8444   -4.7476    1.0752 O.3       1 <0>        -0.3568
     17 C15         1.4921   -5.9977    0.8307 C.3       1 <0>         0.0381
     18 C16         2.2996   -6.4039    2.0652 C.3       1 <0>         0.1281
     19 H2          1.6471   -6.4159    2.9382 H         1 <0>         0.1175
     20 C17         2.8913   -7.7985    1.8513 C.3       1 <0>        -0.1460
     21 S1          3.7237   -8.3413    3.3689 S.3       1 <0>         0.0369
     22 C18         4.3432   -9.9410    2.9664 C.ar      1 <0>         0.3758
     23 N1          4.1289  -10.4296    1.7535 N.ar      1 <0>        -0.6196
     24 C19         4.5824  -11.6340    1.4141 C.ar      1 <0>         0.4761
     25 C20         5.2891  -12.3810    2.3521 C.ar      1 <0>        -0.3718
     26 C21         5.4945  -11.8347    3.6158 C.ar      1 <0>         0.4775
     27 N2          5.0159  -10.6218    3.8828 N.ar      1 <0>        -0.5907
     28 N3          6.1923  -12.5427    4.5819 N.pl3     1 <0>        -0.8350
     29 N4          4.3535  -12.1380    0.1432 N.pl3     1 <0>        -0.8371
     30 O2          3.3564   -5.4648    2.2733 O.3       1 <0>        -0.5405
     31 H3          1.0042    1.8801    0.0026 H         1 <0>         0.0714
     32 H4         -0.5455    1.8639   -0.8728 H         1 <0>         0.0662
     33 H5         -0.5286    1.8543    0.9071 H         1 <0>         0.0668
     34 H6         -0.0064   -0.1436   -2.1312 H         1 <0>         0.1226
     35 H7          0.0266   -2.6057   -2.1448 H         1 <0>         0.1200
     36 H8          0.0491   -2.6289    2.1200 H         1 <0>         0.1275
     37 H9          0.0245   -0.1667    2.1335 H         1 <0>         0.1228
     38 H10        -1.4261   -4.5013    2.2232 H         1 <0>         0.1262
     39 H11        -3.7268   -5.3534    2.4338 H         1 <0>         0.1230
     40 H12        -4.9409   -6.1266    0.4360 H         1 <0>         0.1217
     41 H13        -3.8548   -6.0471   -1.7724 H         1 <0>         0.1224
     42 H14        -1.5571   -5.1873   -1.9841 H         1 <0>         0.1198
     43 H15         0.7424   -6.7602    0.6198 H         1 <0>         0.0629
     44 H16         2.1607   -5.8992   -0.0246 H         1 <0>         0.0576
     45 H17         2.0926   -8.4982    1.6048 H         1 <0>         0.1043
     46 H18         3.6113   -7.7663    1.0336 H         1 <0>         0.0984
     47 H19         5.6689  -13.3614    2.1054 H         1 <0>         0.1363
     48 H20         6.5412  -13.4248    4.3793 H         1 <0>         0.4119
     49 H21         6.3318  -12.1559    5.4605 H         1 <0>         0.4089
     50 H22         3.8600  -11.6122   -0.5055 H         1 <0>         0.4064
     51 H23         4.6869  -13.0166   -0.0974 H         1 <0>         0.4117
     52 H24         3.9772   -5.4012    1.5345 H         1 <0>         0.3759
@<TRIPOS>BOND
     1    1    2 1
     2    1   31 1
     3    1   32 1
     4    1   33 1
     5    2    7 ar
     6    2    3 ar
     7    3    4 ar
     8    3   34 1
     9    4    5 ar
    10    4   35 1
    11    5    6 ar
    12    5    8 1
    13    6    7 ar
    14    6   36 1
    15    7   37 1
    16    8    9 1
    17    8   10 1
    18    8   16 1
    19   10   15 ar
    20   10   11 ar
    21   11   12 ar
    22   11   38 1
    23   12   13 ar
    24   12   39 1
    25   13   14 ar
    26   13   40 1
    27   14   15 ar
    28   14   41 1
    29   15   42 1
    30   16   17 1
    31   17   18 1
    32   17   43 1
    33   17   44 1
    34   18   19 1
    35   18   20 1
    36   18   30 1
    37   20   21 1
    38   20   45 1
    39   20   46 1
    40   21   22 1
    41   22   27 ar
    42   22   23 ar
    43   23   24 ar
    44   24   25 ar
    45   24   29 1
    46   25   26 ar
    47   25   47 1
    48   26   27 ar
    49   26   28 1
    50   28   48 1
    51   28   49 1
    52   29   50 1
    53   29   51 1
    54   30   52 1
@<TRIPOS>MOLECULE
ZINC12385756
   60    63     0     0     0
SMALL
USER_CHARGES
(2R)-1-[2-[[(5-fluoro-1H-indol-2-yl)methylamino]methyl]phenoxy]-3-thiomorpholino-propan-2-ol
@<TRIPOS>ATOM
      1 C1          1.8203   -1.8362   -3.2149 C.ar      1 <0>        -0.1386
      2 C2          1.7840   -0.4560   -3.1365 C.ar      1 <0>        -0.0408
      3 C3          1.1613    0.1601   -2.0687 C.ar      1 <0>        -0.2035
      4 C4          0.5811   -0.6070   -1.0686 C.ar      1 <0>         0.1410
      5 C5          0.6185   -1.9912   -1.1497 C.ar      1 <0>        -0.1903
      6 C6          1.2380   -2.6027   -2.2227 C.ar      1 <0>        -0.0476
      7 C7         -0.0165   -2.8274   -0.0687 C.3       1 <0>         0.0581
      8 C8         -2.1217   -3.6997    0.7497 C.3       1 <0>         0.0751
      9 C9         -3.6061   -3.7415    0.4926 C.2       1 <0>        -0.0128
     10 C10        -4.2451   -4.7139   -0.1769 C.2       1 <0>        -0.1185
     11 C11        -5.6666   -4.3604   -0.1927 C.ar      1 <0>        -0.0983
     12 C12        -6.8097   -4.9624   -0.7235 C.ar      1 <0>        -0.0978
     13 C13        -8.0365   -4.3564   -0.5612 C.ar      1 <0>         0.0888
     14 C14        -8.1396   -3.1528    0.1270 C.ar      1 <0>        -0.1052
     15 C15        -7.0208   -2.5486    0.6561 C.ar      1 <0>        -0.1052
     16 C16        -5.7727   -3.1432    0.5035 C.ar      1 <0>         0.1075
     17 N1         -4.5027   -2.7972    0.9121 N.pl3     1 <0>        -0.5884
     18 H1         -4.2778   -2.0013    1.4190 H         1 <0>         0.4170
     19 F1         -9.1449   -4.9350   -1.0731 F         1 <0>        -0.1281
     20 O1         -0.0277   -0.0032   -0.0142 O.3       1 <0>        -0.3159
     21 C17        -0.0279    1.4257    0.0035 C.3       1 <0>         0.0289
     22 C18        -0.7531    1.9201    1.2568 C.3       1 <0>         0.0843
     23 H2         -0.2962    1.4745    2.1404 H         1 <0>         0.1368
     24 C19        -0.6456    3.4440    1.3405 C.3       1 <0>        -0.0405
     25 C20        -1.7105    5.3271    2.4200 C.3       1 <0>        -0.0051
     26 C21        -2.7963    5.6706    3.4464 C.3       1 <0>        -0.1333
     27 S1         -2.1160    5.3992    5.1122 S.3       1 <0>        -0.1751
     28 C22        -1.4204    3.7218    4.9930 C.3       1 <0>        -0.1329
     29 C23        -0.5307    3.6560    3.7461 C.3       1 <0>        -0.0073
     30 O2         -2.1297    1.5426    1.1907 O.3       1 <0>        -0.5502
     31 H3          2.3041   -2.3161   -4.0528 H         1 <0>         0.1444
     32 H4          2.2393    0.1406   -3.9131 H         1 <0>         0.1427
     33 H5          1.1292    1.2381   -2.0102 H         1 <0>         0.1363
     34 H6          1.2671   -3.6805   -2.2864 H         1 <0>         0.1466
     35 H7          0.3994   -3.8346   -0.0969 H         1 <0>         0.1432
     36 H8          0.1851   -2.3782    0.9038 H         1 <0>         0.1366
     37 H9         -1.7204   -4.7128    0.7272 H         1 <0>         0.1573
     38 H10        -1.9348   -3.2565    1.7279 H         1 <0>         0.1383
     39 H11        -3.7962   -5.5904   -0.6202 H         1 <0>         0.1627
     40 H12        -6.7323   -5.8972   -1.2588 H         1 <0>         0.1459
     41 H13        -9.1065   -2.6872    0.2481 H         1 <0>         0.1499
     42 H14        -7.1126   -1.6139    1.1894 H         1 <0>         0.1360
     43 H15         0.9997    1.7891    0.0112 H         1 <0>         0.0926
     44 H16        -0.5391    1.8000   -0.8834 H         1 <0>         0.0856
     45 H17         0.4047    3.7323    1.3834 H         1 <0>         0.1531
     46 H18        -1.1091    3.8898    0.4604 H         1 <0>         0.1424
     47 H19        -0.8358    5.9537    2.5944 H         1 <0>         0.1494
     48 H20        -2.0911    5.5096    1.4150 H         1 <0>         0.1421
     49 H21        -3.6625    5.0268    3.2940 H         1 <0>         0.1107
     50 H22        -3.0904    6.7143    3.3353 H         1 <0>         0.1587
     51 H23        -2.2279    2.9947    4.9068 H         1 <0>         0.1102
     52 H24        -0.8255    3.5063    5.8805 H         1 <0>         0.1570
     53 H25        -0.0828    2.6650    3.6725 H         1 <0>         0.1368
     54 H26         0.2582    4.4041    3.8241 H         1 <0>         0.1499
     55 H27        -2.6005    1.9042    0.4273 H         1 <0>         0.3940
     56 N2         -1.4728   -2.8859   -0.2956 N.4       1 <0>        -0.5193
     57 H28        -1.6559   -3.3062   -1.2143 H         1 <0>         0.4356
     58 H29        -1.8578   -1.9343   -0.2717 H         1 <0>         0.4272
     59 N3         -1.3651    3.8934    2.5451 N.4       1 <0>        -0.3982
     60 H30        -2.2332    3.3525    2.6349 H         1 <0>         0.4299
@<TRIPOS>BOND
     1    1    6 ar
     2    1    2 ar
     3    1   31 1
     4    2    3 ar
     5    2   32 1
     6    3    4 ar
     7    3   33 1
     8    4    5 ar
     9    4   20 1
    10    5    6 ar
    11    5    7 1
    12    6   34 1
    13    7   35 1
    14    7   36 1
    15    7   56 1
    16    8    9 1
    17    8   37 1
    18    8   38 1
    19    8   56 1
    20    9   17 1
    21    9   10 2
    22   10   11 1
    23   10   39 1
    24   11   16 ar
    25   11   12 ar
    26   12   13 ar
    27   12   40 1
    28   13   14 ar
    29   13   19 1
    30   14   15 ar
    31   14   41 1
    32   15   16 ar
    33   15   42 1
    34   16   17 1
    35   17   18 1
    36   20   21 1
    37   21   22 1
    38   21   43 1
    39   21   44 1
    40   22   23 1
    41   22   24 1
    42   22   30 1
    43   24   45 1
    44   24   46 1
    45   24   59 1
    46   25   26 1
    47   25   47 1
    48   25   48 1
    49   25   59 1
    50   26   27 1
    51   26   49 1
    52   26   50 1
    53   27   28 1
    54   28   29 1
    55   28   51 1
    56   28   52 1
    57   29   53 1
    58   29   54 1
    59   29   59 1
    60   30   55 1
    61   56   57 1
    62   56   58 1
    63   59   60 1
@<TRIPOS>MOLECULE
ZINC13488174
   61    64     0     0     0
SMALL
USER_CHARGES
2-[2-amino-3-cyano-6-(2-hydroxyphenyl)-4-pyridyl]-N-[2-(1-piperidyl)ethyl]benzamide
@<TRIPOS>ATOM
      1 C1          4.5862    0.9476    1.0522 C.ar      1 <0>        -0.0817
      2 C2          4.9578    0.1802   -0.0391 C.ar      1 <0>        -0.1158
      3 C3          4.1126    0.0507   -1.1224 C.ar      1 <0>        -0.0854
      4 C4          2.8734    0.6898   -1.1194 C.ar      1 <0>        -0.1263
      5 C5          2.4988    1.4735   -0.0129 C.ar      1 <0>        -0.0022
      6 C6          3.3655    1.5923    1.0705 C.ar      1 <0>        -0.1006
      7 C7          1.1885    2.1627    0.0023 C.ar      1 <0>         0.0937
      8 C8          1.1120    3.5542    0.0100 C.ar      1 <0>        -0.2226
      9 C9         -0.1384    4.1671    0.0248 C.ar      1 <0>         0.2690
     10 N1         -1.2555    3.4480    0.0321 N.ar      1 <0>        -0.5110
     11 C10        -1.2372    2.1265    0.0194 C.ar      1 <0>         0.4660
     12 C11        -0.0173    1.4278    0.0099 C.ar      1 <0>        -0.1304
     13 C12         0.0021   -0.0041    0.0020 C.1       1 <0>         0.2755
     14 N2          0.0175   -1.1399   -0.0042 N.1       1 <0>        -0.4418
     15 N3         -2.4299    1.4241    0.0216 N.pl3     1 <0>        -0.8620
     16 C13        -0.2244    5.6457    0.0330 C.ar      1 <0>        -0.1140
     17 C14         0.9384    6.4152    0.0260 C.ar      1 <0>        -0.0510
     18 C15         0.8526    7.7918    0.0333 C.ar      1 <0>        -0.1709
     19 C16        -0.3843    8.4136    0.0470 C.ar      1 <0>        -0.0567
     20 C17        -1.5431    7.6616    0.0536 C.ar      1 <0>        -0.2271
     21 C18        -1.4729    6.2773    0.0420 C.ar      1 <0>         0.2053
     22 O1         -2.6112    5.5370    0.0433 O.3       1 <0>        -0.4683
     23 C19         1.9620    0.5494   -2.2733 C.2       1 <0>         0.5636
     24 O2          0.8844    1.1120   -2.2687 O.2       1 <0>        -0.5024
     25 N4          2.3252   -0.2025   -3.3313 N.am      1 <0>        -0.7432
     26 C20         1.4213   -0.3418   -4.4757 C.3       1 <0>         0.1020
     27 C21         2.0692   -1.2403   -5.5310 C.3       1 <0>        -0.0184
     28 N5          1.1629   -1.3800   -6.6786 N.4       1 <0>        -0.3941
     29 C22        -0.0585   -2.1019   -6.2997 C.3       1 <0>        -0.0114
     30 C23        -1.0383   -2.1015   -7.4753 C.3       1 <0>        -0.1463
     31 C24        -0.3794   -2.7740   -8.6828 C.3       1 <0>        -0.1411
     32 C25         0.9152   -2.0322   -9.0267 C.3       1 <0>        -0.1468
     33 C26         1.8384   -2.0346   -7.8062 C.3       1 <0>        -0.0029
     34 H1          5.2555    1.0419    1.8946 H         1 <0>         0.1390
     35 H2          5.9148   -0.3204   -0.0422 H         1 <0>         0.1362
     36 H3          4.4090   -0.5493   -1.9700 H         1 <0>         0.1258
     37 H4          3.0826    2.1887    1.9253 H         1 <0>         0.1410
     38 H5          2.0124    4.1506    0.0050 H         1 <0>         0.1399
     39 H6         -2.4205    0.3242    0.0111 H         1 <0>         0.4249
     40 H7         -3.3872    1.9658    0.0339 H         1 <0>         0.4334
     41 H8          1.9052    5.9338    0.0153 H         1 <0>         0.1332
     42 H9          1.7538    8.3869    0.0279 H         1 <0>         0.1291
     43 H10        -0.4435    9.4920    0.0523 H         1 <0>         0.1277
     44 H11        -2.5049    8.1529    0.0643 H         1 <0>         0.1310
     45 H12        -3.5916    6.0357    0.0504 H         1 <0>         0.4237
     46 H13         3.3003   -0.7115   -3.3355 H         1 <0>         0.4255
     47 H14         0.4744   -0.7917   -4.1424 H         1 <0>         0.0851
     48 H15         1.2235    0.6495   -4.9096 H         1 <0>         0.0885
     49 H16         3.0161   -0.7904   -5.8643 H         1 <0>         0.1392
     50 H17         2.2669   -2.2316   -5.0972 H         1 <0>         0.1338
     51 H18         0.1957   -3.1389   -6.0352 H         1 <0>         0.1276
     52 H19        -0.5239   -1.6064   -5.4349 H         1 <0>         0.1314
     53 H20        -1.9468   -2.6550   -7.1956 H         1 <0>         0.1129
     54 H21        -1.3044   -1.0651   -7.7305 H         1 <0>         0.0893
     55 H22        -0.1512   -3.8222   -8.4394 H         1 <0>         0.0813
     56 H23        -1.0653   -2.7381   -9.5420 H         1 <0>         0.0953
     57 H24         1.4144   -2.5364   -9.8673 H         1 <0>         0.1136
     58 H25         0.6799   -0.9953   -9.3086 H         1 <0>         0.0894
     59 H26         2.7635   -1.4898   -8.0457 H         1 <0>         0.1319
     60 H27         2.0837   -3.0719   -7.5346 H         1 <0>         0.1269
     61 H28         0.8689   -0.3712   -7.0040 H         1 <0>         0.4428
@<TRIPOS>BOND
     1    1    6 ar
     2    1    2 ar
     3    1   34 1
     4    2    3 ar
     5    2   35 1
     6    3    4 ar
     7    3   36 1
     8    4    5 ar
     9    4   23 1
    10    5    6 ar
    11    5    7 1
    12    6   37 1
    13    7   12 ar
    14    7    8 ar
    15    8    9 ar
    16    8   38 1
    17    9   10 ar
    18    9   16 1
    19   10   11 ar
    20   11   12 ar
    21   11   15 1
    22   12   13 1
    23   13   14 3
    24   15   39 1
    25   15   40 1
    26   16   21 ar
    27   16   17 ar
    28   17   18 ar
    29   17   41 1
    30   18   19 ar
    31   18   42 1
    32   19   20 ar
    33   19   43 1
    34   20   21 ar
    35   20   44 1
    36   21   22 1
    37   22   45 1
    38   23   24 2
    39   23   25 am
    40   25   26 1
    41   25   46 1
    42   26   27 1
    43   26   47 1
    44   26   48 1
    45   27   28 1
    46   27   49 1
    47   27   50 1
    48   28   33 1
    49   28   29 1
    50   28   61 1
    51   29   30 1
    52   29   51 1
    53   29   52 1
    54   30   31 1
    55   30   53 1
    56   30   54 1
    57   31   32 1
    58   31   55 1
    59   31   56 1
    60   32   33 1
    61   32   57 1
    62   32   58 1
    63   33   59 1
    64   33   60 1
@<TRIPOS>MOLECULE
ZINC39394223
   67    70     0     0     0
SMALL
USER_CHARGES

@<TRIPOS>ATOM
      1 C1         -0.0173    1.4248    0.0099 C.3       1 <0>         0.0205
      2 O1          0.0021   -0.0041    0.0020 O.3       1 <0>        -0.2974
      3 C2         -1.2011   -0.6379    0.0101 C.ar      1 <0>         0.1169
      4 C3         -2.3743    0.0994    0.0195 C.ar      1 <0>        -0.1519
      5 C4         -3.5965   -0.5465    0.0272 C.ar      1 <0>        -0.1554
      6 C5         -3.6519   -1.9279    0.0261 C.ar      1 <0>        -0.0854
      7 C6         -2.4852   -2.6694    0.0172 C.ar      1 <0>        -0.1733
      8 C7         -1.2569   -2.0283    0.0032 C.ar      1 <0>         0.1289
      9 O2         -0.1083   -2.7563   -0.0116 O.3       1 <0>        -0.2826
     10 C8         -0.2420   -4.1790   -0.0180 C.3       1 <0>         0.0257
     11 C9          1.1464   -4.8217   -0.0346 C.3       1 <0>         0.0852
     12 H1          1.7157   -4.4349   -0.8798 H         1 <0>         0.1366
     13 C10         1.0044   -6.3393   -0.1672 C.3       1 <0>        -0.0429
     14 N1          2.3374   -6.9563   -0.1831 N.4       1 <0>        -0.3802
     15 C11         3.0628   -6.5196   -1.3821 C.3       1 <0>        -0.0080
     16 C12         4.4807   -7.0946   -1.3628 C.3       1 <0>        -0.1438
     17 C13         4.4051   -8.6240   -1.3388 C.3       1 <0>         0.0963
     18 C14         3.5832   -9.0656   -0.1245 C.3       1 <0>        -0.1851
     19 C15         2.1985   -8.4176   -0.1896 C.3       1 <0>        -0.0022
     20 O3          5.7240   -9.1662   -1.2458 O.3       1 <0>        -0.5513
     21 O4          1.8294   -4.5116    1.1817 O.3       1 <0>        -0.5395
     22 C16        -4.8714    0.2570    0.0374 C.3       1 <0>         0.0458
     23 N2         -5.2955    0.5201   -1.3443 N.4       1 <0>        -0.5099
     24 C17        -6.5382    1.3033   -1.3343 C.3       1 <0>         0.0570
     25 C18        -6.9732    1.5732   -2.7517 C.2       1 <0>        -0.1834
     26 C19        -7.8823    0.7856   -3.4023 C.2       1 <0>         0.0130
     27 C20        -8.2232    1.0600   -4.7950 C.2       1 <0>        -0.1777
     28 C21        -7.9384    2.2198   -5.3984 C.2       1 <0>        -0.0453
     29 C22        -7.2880    3.3120   -4.6036 C.3       1 <0>         0.0514
     30 H2         -8.0520    3.9540   -4.1651 H         1 <0>         0.1590
     31 C23        -6.4781    2.6568   -3.4992 C.2       1 <0>        -0.0908
     32 C24        -5.3040    3.3088   -3.4981 C.2       1 <0>        -0.1724
     33 C25        -5.2208    4.1242   -4.6493 C.2       1 <0>         0.1360
     34 N3         -6.3242    4.1216   -5.3342 N.2       1 <0>        -0.4483
     35 H3          1.0053    1.8021    0.0021 H         1 <0>         0.1136
     36 H4         -0.5445    1.7859   -0.8732 H         1 <0>         0.0592
     37 H5         -0.5275    1.7763    0.9067 H         1 <0>         0.0622
     38 H6         -2.3338    1.1787    0.0211 H         1 <0>         0.1474
     39 H7         -4.6086   -2.4288    0.0325 H         1 <0>         0.1399
     40 H8         -2.5312   -3.7485    0.0167 H         1 <0>         0.1439
     41 H9         -0.7791   -4.4975    0.8754 H         1 <0>         0.0815
     42 H10        -0.7960   -4.4879   -0.9044 H         1 <0>         0.0855
     43 H11         0.4351   -6.7261    0.6780 H         1 <0>         0.1402
     44 H12         0.4834   -6.5758   -1.0949 H         1 <0>         0.1452
     45 H13         2.5401   -6.8726   -2.2711 H         1 <0>         0.1330
     46 H14         3.1129   -5.4309   -1.3995 H         1 <0>         0.1377
     47 H15         5.0170   -6.7707   -2.2547 H         1 <0>         0.1221
     48 H16         5.0044   -6.7420   -0.4743 H         1 <0>         0.0989
     49 H17         3.9270   -8.9797   -2.2514 H         1 <0>         0.0737
     50 H18         3.4780  -10.1505   -0.1312 H         1 <0>         0.1179
     51 H19         4.0882   -8.7539    0.7898 H         1 <0>         0.0988
     52 H20         1.6106   -8.7300    0.6734 H         1 <0>         0.1348
     53 H21         1.6943   -8.7301   -1.1041 H         1 <0>         0.1321
     54 H22         5.7515  -10.1326   -1.2259 H         1 <0>         0.3961
     55 H23         1.3787   -4.8265    1.9771 H         1 <0>         0.3910
     56 H24        -5.6496   -0.3029    0.5559 H         1 <0>         0.1432
     57 H25        -4.7006    1.2029    0.5514 H         1 <0>         0.1403
     58 H26        -4.5750    1.0384   -1.8243 H         1 <0>         0.4250
     59 H27        -7.3164    0.7434   -0.8158 H         1 <0>         0.1435
     60 H28        -6.3674    2.2493   -0.8203 H         1 <0>         0.1405
     61 H29        -8.3482   -0.0403   -2.8854 H         1 <0>         0.1434
     62 H30        -8.7274    0.2927   -5.3637 H         1 <0>         0.1409
     63 H31        -8.1731    2.3668   -6.4423 H         1 <0>         0.1467
     64 H32        -4.5427    3.2233   -2.7368 H         1 <0>         0.1400
     65 H33        -4.3394    4.6808   -4.9316 H         1 <0>         0.1790
     66 H34         2.8485   -6.6717    0.6390 H         1 <0>         0.4305
     67 H35        -5.4535   -0.3555   -1.8201 H         1 <0>         0.4267
@<TRIPOS>BOND
     1    1    2 1
     2    1   35 1
     3    1   36 1
     4    1   37 1
     5    2    3 1
     6    3    8 ar
     7    3    4 ar
     8    4    5 ar
     9    4   38 1
    10    5    6 ar
    11    5   22 1
    12    6    7 ar
    13    6   39 1
    14    7    8 ar
    15    7   40 1
    16    8    9 1
    17    9   10 1
    18   10   11 1
    19   10   41 1
    20   10   42 1
    21   11   12 1
    22   11   13 1
    23   11   21 1
    24   13   14 1
    25   13   43 1
    26   13   44 1
    27   14   19 1
    28   14   15 1
    29   14   66 1
    30   15   16 1
    31   15   45 1
    32   15   46 1
    33   16   17 1
    34   16   47 1
    35   16   48 1
    36   17   18 1
    37   17   20 1
    38   17   49 1
    39   18   19 1
    40   18   50 1
    41   18   51 1
    42   19   52 1
    43   19   53 1
    44   20   54 1
    45   21   55 1
    46   22   23 1
    47   22   56 1
    48   22   57 1
    49   23   24 1
    50   23   58 1
    51   23   67 1
    52   24   25 1
    53   24   59 1
    54   24   60 1
    55   25   31 1
    56   25   26 2
    57   26   27 1
    58   26   61 1
    59   27   28 2
    60   27   62 1
    61   28   29 1
    62   28   63 1
    63   29   30 1
    64   29   34 1
    65   29   31 1
    66   31   32 2
    67   32   33 1
    68   32   64 1
    69   33   34 2
    70   33   65 1
@<TRIPOS>MOLECULE
ZINC52566187
   61    65     0     0     0
SMALL
USER_CHARGES

@<TRIPOS>ATOM
      1 C1         -0.0365    1.5024    0.0078 C.3       1 <0>        -0.1446
      2 C2          0.0021   -0.0041    0.0020 C.2       1 <0>         0.0411
      3 C3          0.0227   -0.6803    1.1636 C.2       1 <0>        -0.2026
      4 C4         -0.0517   -2.1506    1.3566 C.ar      1 <0>        -0.0887
      5 C5         -0.1582   -3.2173    0.4764 C.ar      1 <0>        -0.0492
      6 C6         -0.2078   -4.5172    0.9724 C.ar      1 <0>        -0.0942
      7 C7         -0.1501   -4.7365    2.3492 C.ar      1 <0>        -0.0650
      8 C8         -0.0448   -3.6759    3.2217 C.ar      1 <0>        -0.1375
      9 C9          0.0062   -2.3711    2.7385 C.ar      1 <0>         0.1716
     10 N1          0.1098   -1.1503    3.3964 N.am      1 <0>        -0.6554
     11 C10         0.1310   -0.1230    2.5305 C.2       1 <0>         0.5598
     12 O1          0.2203    1.0553    2.8188 O.2       1 <0>        -0.4868
     13 C11        -0.3222   -5.6658    0.0400 C.ar      1 <0>        -0.0235
     14 C12        -0.3784   -6.9732    0.5288 C.ar      1 <0>        -0.0967
     15 C13        -0.4853   -8.0131   -0.3855 C.ar      1 <0>         0.0612
     16 C14        -0.5321   -7.7198   -1.7416 C.ar      1 <0>         0.0178
     17 N2         -0.4762   -6.4735   -2.1681 N.ar      1 <0>        -0.4352
     18 C15        -0.3810   -5.4564   -1.3363 C.ar      1 <0>         0.0891
     19 O2         -0.5428   -9.3020    0.0421 O.3       1 <0>        -0.3228
     20 C16        -0.6522  -10.3140   -0.9609 C.3       1 <0>         0.0257
     21 C17        -0.7035  -11.6899   -0.2937 C.3       1 <0>         0.0424
     22 H1          0.1645  -11.8121    0.3542 H         1 <0>         0.1651
     23 C18        -0.6950  -12.7786   -1.3686 C.3       1 <0>        -0.1047
     24 C19        -0.6215  -14.1328   -0.7115 C.2       1 <0>        -0.0031
     25 C20        -1.6579  -14.9489   -0.4127 C.ar      1 <0>        -0.1436
     26 C21        -3.1082  -14.8244   -0.6017 C.ar      1 <0>        -0.0786
     27 C22        -3.9122  -15.8309   -0.1900 C.ar      1 <0>        -0.0999
     28 C23        -3.3965  -16.9870    0.4118 C.ar      1 <0>         0.0484
     29 C24        -2.0758  -17.1740    0.6193 C.ar      1 <0>        -0.1927
     30 C25        -1.1385  -16.1799    0.2248 C.ar      1 <0>         0.3308
     31 N3          0.1682  -16.1268    0.3166 N.pl3     1 <0>        -0.5615
     32 C26         0.6264  -14.8572   -0.2585 C.3       1 <0>         0.0602
     33 N4         -1.9308  -11.8009    0.5059 N.4       1 <0>        -0.6426
     34 C27         0.0175   -0.7524   -1.3059 C.3       1 <0>        -0.1412
     35 H2          0.9816    1.8919    0.0062 H         1 <0>         0.0922
     36 H3         -0.5620    1.8558   -0.8794 H         1 <0>         0.0810
     37 H4         -0.5568    1.8492    0.9006 H         1 <0>         0.0900
     38 H5         -0.2028   -3.0403   -0.5881 H         1 <0>         0.1366
     39 H6         -0.1886   -5.7451    2.7335 H         1 <0>         0.1309
     40 H7         -0.0015   -3.8572    4.2855 H         1 <0>         0.1355
     41 H8          0.1646   -1.0528    4.3599 H         1 <0>         0.4213
     42 H9         -0.3394   -7.1701    1.5900 H         1 <0>         0.1492
     43 H10        -0.6152   -8.5241   -2.4576 H         1 <0>         0.1550
     44 H11        -0.3429   -4.4497   -1.7255 H         1 <0>         0.1686
     45 H12        -1.5630  -10.1561   -1.5385 H         1 <0>         0.0995
     46 H13         0.2117  -10.2636   -1.6236 H         1 <0>         0.1214
     47 H14        -1.6073  -12.7113   -1.9612 H         1 <0>         0.1369
     48 H15         0.1704  -12.6421   -2.0171 H         1 <0>         0.1619
     49 H16        -3.5270  -13.9420   -1.0625 H         1 <0>         0.1606
     50 H17        -4.9796  -15.7414   -0.3281 H         1 <0>         0.1675
     51 H18        -4.0840  -17.7598    0.7224 H         1 <0>         0.1713
     52 H19        -1.7292  -18.0833    1.0877 H         1 <0>         0.1705
     53 H20         1.2827  -15.0426   -1.1089 H         1 <0>         0.1865
     54 H21         1.1475  -14.2707    0.4982 H         1 <0>         0.1786
     55 H22        -2.7343  -11.6877   -0.0938 H         1 <0>         0.4385
     56 H23        -1.9647  -12.7082    0.9460 H         1 <0>         0.4288
     57 H24         0.0868   -0.0424   -2.1300 H         1 <0>         0.0837
     58 H25         0.8766   -1.4228   -1.3308 H         1 <0>         0.0848
     59 H26        -0.8996   -1.3334   -1.4030 H         1 <0>         0.0861
     60 H27         0.7373  -16.8138    0.6974 H         1 <0>         0.4649
     61 H28        -1.9365  -11.0829    1.2148 H         1 <0>         0.4551
@<TRIPOS>BOND
     1    1    2 1
     2    1   35 1
     3    1   36 1
     4    1   37 1
     5    2    3 2
     6    2   34 1
     7    3   11 1
     8    3    4 1
     9    4    9 ar
    10    4    5 ar
    11    5    6 ar
    12    5   38 1
    13    6    7 ar
    14    6   13 1
    15    7    8 ar
    16    7   39 1
    17    8    9 ar
    18    8   40 1
    19    9   10 1
    20   10   11 am
    21   10   41 1
    22   11   12 2
    23   13   18 ar
    24   13   14 ar
    25   14   15 ar
    26   14   42 1
    27   15   16 ar
    28   15   19 1
    29   16   17 ar
    30   16   43 1
    31   17   18 ar
    32   18   44 1
    33   19   20 1
    34   20   21 1
    35   20   45 1
    36   20   46 1
    37   21   22 1
    38   21   23 1
    39   21   33 1
    40   23   24 1
    41   23   47 1
    42   23   48 1
    43   24   32 1
    44   24   25 2
    45   25   30 ar
    46   25   26 ar
    47   26   27 ar
    48   26   49 1
    49   27   28 ar
    50   27   50 1
    51   28   29 ar
    52   28   51 1
    53   29   30 ar
    54   29   52 1
    55   30   31 2
    56   31   32 1
    57   31   60 1
    58   32   53 1
    59   32   54 1
    60   33   55 1
    61   33   56 1
    62   33   61 1
    63   34   57 1
    64   34   58 1
    65   34   59 1
@<TRIPOS>MOLECULE
ZINC63635496
   64    67     0     0     0
SMALL
USER_CHARGES

@<TRIPOS>ATOM
      1 C1          1.4554   -3.3971   -0.8073 C.3       1 <0>        -0.1562
      2 C2          0.4611   -2.2481   -0.6288 C.3       1 <0>         0.0657
      3 O1         -0.8681   -2.7708   -0.5851 O.3       1 <0>        -0.3507
      4 C3         -1.8772   -1.8758   -0.5342 C.2       1 <0>         0.5437
      5 O2         -1.6395   -0.6852   -0.6196 O.2       1 <0>        -0.5386
      6 C4         -3.2084   -2.3208   -0.3819 C.2       1 <0>        -0.3553
      7 H1         -5.4192   -4.6012   -0.2033 H         1 <0>         0.4292
      8 C5         -4.4197   -1.4358   -0.1817 C.3       1 <0>        -0.5124
      9 H2         -4.5563   -0.7741   -1.0371 H         1 <0>         0.1446
     10 C6         -5.5882   -2.4349   -0.0776 C.3       1 <0>         0.1616
     11 H3         -6.3061   -2.2671   -0.8805 H         1 <0>         0.1135
     12 N1         -4.9521   -3.7513   -0.2236 N.pl3     1 <0>        -0.6887
     13 C7         -3.6149   -3.6008   -0.3958 C.2       1 <0>         0.3065
     14 C8         -2.6726   -4.7622   -0.5813 C.3       1 <0>        -0.1382
     15 C9         -6.2737   -2.3168    1.2851 C.3       1 <0>        -0.2556
     16 S1         -4.2605   -0.4733    1.3476 S.o2      1 <0>         2.6199
     17 O3         -5.3817    0.3854    1.5044 O.2       1 <0>        -0.9578
     18 O4         -3.8367   -1.3132    2.4126 O.2       1 <0>        -0.9406
     19 N2         -2.9827    0.5451    1.0785 N.pl3     1 <0>        -1.0903
     20 C10        -3.0892    1.6037    0.0713 C.3       1 <0>         0.1106
     21 C11        -2.0035    2.6239    0.2982 C.2       1 <0>         0.5285
     22 O5         -1.1635    2.4358    1.1527 O.2       1 <0>        -0.4932
     23 N3         -1.9659    3.7453   -0.4485 N.am      1 <0>        -0.6787
     24 C12        -0.8996    4.6411   -0.3123 C.ar      1 <0>         0.2266
     25 C13         0.3778    4.1667   -0.0442 C.ar      1 <0>        -0.1070
     26 C14         1.4281    5.0535    0.0897 C.ar      1 <0>        -0.0602
     27 C15         1.2089    6.4124   -0.0429 C.ar      1 <0>        -0.2093
     28 C16        -0.0620    6.8879   -0.3095 C.ar      1 <0>        -0.0596
     29 C17        -1.1154    6.0059   -0.4506 C.ar      1 <0>        -0.1302
     30 C18         2.3572    7.3771    0.1038 C.3       1 <0>         0.3197
     31 N4          3.5962    6.7650   -0.3924 N.pl3     1 <0>        -0.4640
     32 C19         4.0280    7.4997   -1.3764 C.ar      1 <0>         0.3250
     33 C20         5.2001    7.4013   -2.2571 C.ar      1 <0>        -0.1398
     34 C21         5.3938    8.3321   -3.2129 C.ar      1 <0>         0.0323
     35 C22         4.5129    9.4102   -3.4108 C.ar      1 <0>         0.0338
     36 C23         3.4092    9.5943   -2.6592 C.ar      1 <0>        -0.1408
     37 C24         3.0958    8.6411   -1.5856 C.ar      1 <0>         0.3259
     38 N5          2.1238    8.5680   -0.7229 N.pl3     1 <0>        -0.4653
     39 H4          2.4601   -2.9925   -0.9295 H         1 <0>         0.0768
     40 H5          1.4276   -4.0415    0.0713 H         1 <0>         0.0690
     41 H6          1.1869   -3.9760   -1.6910 H         1 <0>         0.0682
     42 H7          0.6759   -1.7231    0.3020 H         1 <0>         0.0636
     43 H8          0.5519   -1.5557   -1.4657 H         1 <0>         0.0625
     44 H9         -2.3114   -5.0959    0.3915 H         1 <0>         0.1028
     45 H10        -3.1973   -5.5806   -1.0743 H         1 <0>         0.0827
     46 H11        -1.8277   -4.4501   -1.1951 H         1 <0>         0.1101
     47 H12        -6.6602   -1.3054    1.4109 H         1 <0>         0.1030
     48 H13        -7.0964   -3.0296    1.3410 H         1 <0>         0.1026
     49 H14        -5.5530   -2.5311    2.0742 H         1 <0>         0.0923
     50 H15        -2.1637    0.4407    1.5876 H         1 <0>         0.4269
     51 H16        -2.9794    1.1713   -0.9232 H         1 <0>         0.1157
     52 H17        -4.0634    2.0857    0.1525 H         1 <0>         0.1118
     53 H18        -2.6780    3.9314   -1.0802 H         1 <0>         0.4271
     54 H19         0.5496    3.1056    0.0599 H         1 <0>         0.1624
     55 H20         2.4217    4.6853    0.2986 H         1 <0>         0.1335
     56 H21        -0.2300    7.9498   -0.4122 H         1 <0>         0.1335
     57 H22        -2.1068    6.3776   -0.6639 H         1 <0>         0.1572
     58 H23         2.4732    7.6641    1.1489 H         1 <0>         0.2426
     59 H24         5.9016    6.5886   -2.1397 H         1 <0>         0.2052
     60 H25         6.2600    8.2461   -3.8523 H         1 <0>         0.2029
     61 H26         4.7295   10.1192   -4.1962 H         1 <0>         0.2030
     62 H27         2.7595   10.4369   -2.8447 H         1 <0>         0.2053
     63 H28         4.0162    5.9607   -0.0495 H         1 <0>         0.4925
     64 H29         1.3812    9.1866   -0.6413 H         1 <0>         0.4923
@<TRIPOS>BOND
     1    1    2 1
     2    1   39 1
     3    1   40 1
     4    1   41 1
     5    2    3 1
     6    2   42 1
     7    2   43 1
     8    3    4 1
     9    4    5 2
    10    4    6 1
    11    6    8 1
    12    6   13 2
    13    7   12 1
    14    8    9 1
    15    8   10 1
    16    8   16 1
    17   10   11 1
    18   10   15 1
    19   10   12 1
    20   12   13 1
    21   13   14 1
    22   14   44 1
    23   14   45 1
    24   14   46 1
    25   15   47 1
    26   15   48 1
    27   15   49 1
    28   16   17 2
    29   16   18 2
    30   16   19 1
    31   19   20 1
    32   19   50 1
    33   20   21 1
    34   20   51 1
    35   20   52 1
    36   21   22 2
    37   21   23 am
    38   23   24 1
    39   23   53 1
    40   24   29 ar
    41   24   25 ar
    42   25   26 ar
    43   25   54 1
    44   26   27 ar
    45   26   55 1
    46   27   28 ar
    47   27   30 1
    48   28   29 ar
    49   28   56 1
    50   29   57 1
    51   30   38 1
    52   30   31 1
    53   30   58 1
    54   31   32 2
    55   31   63 1
    56   32   37 ar
    57   32   33 ar
    58   33   34 ar
    59   33   59 1
    60   34   35 ar
    61   34   60 1
    62   35   36 ar
    63   35   61 1
    64   36   37 ar
    65   36   62 1
    66   37   38 2
    67   38   64 1
@<TRIPOS>MOLECULE
ZINC14948951
   48    50     0     0     0
SMALL
USER_CHARGES

@<TRIPOS>ATOM
      1 C1         -0.0167    1.3801    0.0096 C.ar      1 <0>        -0.1079
      2 C2          1.1707    2.0873    0.0021 C.ar      1 <0>        -0.1099
      3 C3          2.3787    1.4116   -0.0131 C.ar      1 <0>         0.1060
      4 C4          2.3975    0.0270   -0.0207 C.ar      1 <0>        -0.1367
      5 C5          1.2105   -0.6800   -0.0132 C.ar      1 <0>        -0.1451
      6 C6          0.0021   -0.0041    0.0020 C.ar      1 <0>         0.1064
      7 F1         -1.1586   -0.6954    0.0094 F         1 <0>        -0.1226
      8 C7          3.7126   -0.7087   -0.0378 C.3       1 <0>        -0.0977
      9 C8          4.2333   -0.8556    1.3934 C.3       1 <0>         0.0511
     10 H1          4.2910    0.1269    1.8617 H         1 <0>         0.1530
     11 C9          5.6252   -1.4905    1.3670 C.3       1 <0>        -0.1715
     12 C10         6.1890   -1.5230    2.7641 C.2       1 <0>         0.5114
     13 O1          5.5415   -1.0818    3.6898 O.2       1 <0>        -0.5496
     14 N1          7.4130   -2.0423    2.9850 N.am      1 <0>        -0.5921
     15 C11         8.2129   -2.5754    1.8736 C.3       1 <0>         0.0999
     16 C12         9.4608   -1.7052    1.6787 C.3       1 <0>        -0.0589
     17 C13        10.0835   -1.4446    3.0284 C.2       1 <0>         0.0832
     18 C14         9.4084   -1.6159    4.2485 C.2       1 <0>        -0.1869
     19 C15        10.2529   -1.2938    5.2442 C.2       1 <0>         0.0156
     20 N2         11.4277   -0.9309    4.6816 N.pl3     1 <0>        -0.4463
     21 N3         11.2921   -1.0357    3.2892 N.2       1 <0>        -0.2240
     22 H2         12.2242   -0.6476    5.1573 H         1 <0>         0.4490
     23 C16         9.9455   -1.3298    6.7190 C.3       1 <0>         0.3464
     24 C17        11.1797   -0.8885    7.5082 C.3       1 <0>         0.4223
     25 F2         11.5297    0.4140    7.1365 F         1 <0>        -0.1520
     26 F3         10.8944   -0.9220    8.8774 F         1 <0>        -0.1434
     27 F4         12.2437   -1.7540    7.2323 F         1 <0>        -0.1513
     28 F5          8.8815   -0.4643    6.9949 F         1 <0>        -0.1390
     29 F6          9.5955   -2.6324    7.0907 F         1 <0>        -0.1387
     30 C18         7.9792   -2.0816    4.3457 C.3       1 <0>         0.1800
     31 N4          3.3193   -1.7114    2.1616 N.4       1 <0>        -0.6368
     32 F7          3.5394    2.1029   -0.0209 F         1 <0>        -0.1240
     33 H3         -0.9591    1.9073    0.0260 H         1 <0>         0.1572
     34 H4          1.1560    3.1672    0.0077 H         1 <0>         0.1576
     35 H5          1.2251   -1.7599   -0.0195 H         1 <0>         0.1495
     36 H6          3.5707   -1.6965   -0.4760 H         1 <0>         0.1116
     37 H7          4.4348   -0.1482   -0.6314 H         1 <0>         0.1304
     38 H8          5.5535   -2.5071    0.9804 H         1 <0>         0.1276
     39 H9          6.2805   -0.9027    0.7242 H         1 <0>         0.1481
     40 H10         8.5148   -3.5978    2.1009 H         1 <0>         0.0964
     41 H11         7.6177   -2.5667    0.9605 H         1 <0>         0.1040
     42 H12        10.1746   -2.2270    1.0413 H         1 <0>         0.1121
     43 H13         9.1788   -0.7601    1.2147 H         1 <0>         0.0984
     44 H14         7.4164   -1.4177    5.0019 H         1 <0>         0.1129
     45 H15         7.9490   -3.1006    4.7316 H         1 <0>         0.0982
     46 H16         3.2659   -2.6209    1.7280 H         1 <0>         0.4287
     47 H17         3.6627   -1.8083    3.1054 H         1 <0>         0.4433
     48 H18         2.4014   -1.2927    2.1790 H         1 <0>         0.4338
@<TRIPOS>BOND
     1    1    6 ar
     2    1    2 ar
     3    1   33 1
     4    2    3 ar
     5    2   34 1
     6    3    4 ar
     7    3   32 1
     8    4    5 ar
     9    4    8 1
    10    5    6 ar
    11    5   35 1
    12    6    7 1
    13    8    9 1
    14    8   36 1
    15    8   37 1
    16    9   10 1
    17    9   11 1
    18    9   31 1
    19   11   12 1
    20   11   38 1
    21   11   39 1
    22   12   13 2
    23   12   14 am
    24   14   30 1
    25   14   15 1
    26   15   16 1
    27   15   40 1
    28   15   41 1
    29   16   42 1
    30   16   43 1
    31   16   17 1
    32   17   21 2
    33   17   18 1
    34   18   30 1
    35   18   19 2
    36   19   23 1
    37   19   20 1
    38   20   21 1
    39   20   22 1
    40   23   24 1
    41   23   28 1
    42   23   29 1
    43   24   25 1
    44   24   26 1
    45   24   27 1
    46   30   44 1
    47   30   45 1
    48   31   46 1
    49   31   47 1
    50   31   48 1
@<TRIPOS>MOLECULE
ZINC16957850
   67    70     0     0     0
SMALL
USER_CHARGES
N-[(5Z)-5-[[4-[bis(3-iminopropyl)amino]phenyl]methylene]-2-phenyl-4H-imidazol-3-yl]-4-chloro-benzamide
@<TRIPOS>ATOM
      1 C1          3.6051    8.5337   -1.1672 C.ar      1 <0>        -0.0545
      2 C2          4.6584    9.0506   -0.4336 C.ar      1 <0>        -0.1130
      3 C3          4.9928    8.4959    0.7841 C.ar      1 <0>        -0.0627
      4 C4          4.2657    7.4093    1.2761 C.ar      1 <0>        -0.1223
      5 C5          3.2077    6.8887    0.5272 C.ar      1 <0>        -0.0676
      6 C6          2.8805    7.4574   -0.6860 C.ar      1 <0>        -0.1103
      7 C7          4.6177    6.8102    2.5787 C.cat     1 <0>         0.5381
      8 N1          4.0821    5.7146    3.0421 N.pl3     1 <0>        -0.5555
      9 C8          4.5691    5.3745    4.2506 C.2       1 <0>        -0.0139
     10 C9          4.2226    4.3032    4.9935 C.2       1 <0>        -0.0187
     11 C10         3.2968    3.2974    4.4478 C.ar      1 <0>        -0.1389
     12 C11         2.6773    3.5117    3.2122 C.ar      1 <0>        -0.0723
     13 C12         1.8111    2.5679    2.7054 C.ar      1 <0>        -0.1906
     14 C13         1.5521    1.4037    3.4206 C.ar      1 <0>         0.2470
     15 C14         2.1618    1.1890    4.6519 C.ar      1 <0>        -0.1828
     16 C15         3.0338    2.1248    5.1635 C.ar      1 <0>        -0.0274
     17 N2          0.6727    0.4501    2.9035 N.pl3     1 <0>        -0.6114
     18 C16         0.3983   -0.7771    3.6551 C.3       1 <0>         0.1193
     19 C17        -0.7974   -0.5507    4.5823 C.3       1 <0>        -0.1141
     20 C18        -1.0797   -1.8131    5.3555 C.2       1 <0>         0.1522
     21 N3         -1.1224   -1.7842    6.6339 N.2       1 <0>        -0.6721
     22 C19         0.0246    0.6768    1.6094 C.3       1 <0>         0.1217
     23 C20        -1.3013    1.4094    1.8245 C.3       1 <0>        -0.1722
     24 C21        -1.9680    1.6427    0.4932 C.2       1 <0>         0.1551
     25 N4         -3.1639    1.2329    0.2962 N.2       1 <0>        -0.6650
     26 C22         5.5815    6.4448    4.6087 C.3       1 <0>         0.1261
     27 N5          5.5472    7.3449    3.4412 N.pl3     1 <0>        -0.3619
     28 N6          6.3025    8.5095    3.2514 N.am      1 <0>        -0.5144
     29 C23         5.7412    9.7175    3.4563 C.2       1 <0>         0.5674
     30 O1          4.5796    9.7966    3.8058 O.2       1 <0>        -0.4907
     31 C24         6.5379   10.9460    3.2561 C.ar      1 <0>        -0.1413
     32 C25         7.8739   10.8582    2.8603 C.ar      1 <0>        -0.0709
     33 C26         8.6111   12.0081    2.6713 C.ar      1 <0>        -0.1127
     34 C27         8.0313   13.2483    2.8822 C.ar      1 <0>         0.0028
     35 C28         6.7077   13.3416    3.2795 C.ar      1 <0>        -0.1118
     36 C29         5.9592   12.1989    3.4675 C.ar      1 <0>        -0.0332
     37 Cl1         8.9675   14.6913    2.6481 Cl        1 <0>        -0.0391
     38 H1          3.3476    8.9720   -2.1201 H         1 <0>         0.1464
     39 H2          5.2196    9.8907   -0.8152 H         1 <0>         0.1460
     40 H3          5.8151    8.9003    1.3557 H         1 <0>         0.1374
     41 H4          2.6442    6.0460    0.8996 H         1 <0>         0.1276
     42 H5          2.0597    7.0590   -1.2638 H         1 <0>         0.1488
     43 H6          4.6319    4.1812    6.0072 H         1 <0>         0.1692
     44 H7          2.8779    4.4156    2.6562 H         1 <0>         0.1093
     45 H8          1.3323    2.7325    1.7515 H         1 <0>         0.1365
     46 H9          1.9544    0.2855    5.2061 H         1 <0>         0.1373
     47 H10         3.5100    1.9554    6.1179 H         1 <0>         0.1383
     48 H11         0.1692   -1.5930    2.9539 H         1 <0>         0.0892
     49 H12         1.2811   -1.0454    4.2540 H         1 <0>         0.0858
     50 H13        -0.5683    0.2653    5.2835 H         1 <0>         0.0862
     51 H14        -1.6802   -0.2824    3.9834 H         1 <0>         0.0877
     52 H15        -1.2490   -2.7594    4.8208 H         1 <0>         0.0906
     53 H16        -1.3284   -2.7056    7.1983 H         1 <0>         0.3538
     54 H17         0.6816    1.2870    0.9722 H         1 <0>         0.0865
     55 H18        -0.1657   -0.2899    1.1203 H         1 <0>         0.0878
     56 H19        -1.9582    0.7991    2.4617 H         1 <0>         0.0781
     57 H20        -1.1110    2.3761    2.3137 H         1 <0>         0.0883
     58 H21        -1.4265    2.1653   -0.3091 H         1 <0>         0.1548
     59 H22        -3.7054    0.7103    1.0985 H         1 <0>         0.3444
     60 H23         5.2713    6.9470    5.5369 H         1 <0>         0.1277
     61 H24         6.5686    5.9818    4.7546 H         1 <0>         0.1331
     62 H25         7.3536    8.4379    2.9351 H         1 <0>         0.4636
     63 H26         8.3281    9.8917    2.6995 H         1 <0>         0.1355
     64 H27         9.6438   11.9415    2.3622 H         1 <0>         0.1497
     65 H28         6.2611   14.3113    3.4428 H         1 <0>         0.1509
     66 H29         4.9274   12.2729    3.7781 H         1 <0>         0.1505
     67 H30         3.3216    5.1820    2.4522 H         1 <0>         0.4708
@<TRIPOS>BOND
     1    1    6 ar
     2    1    2 ar
     3    1   38 1
     4    2    3 ar
     5    2   39 1
     6    3    4 ar
     7    3   40 1
     8    4    5 ar
     9    4    7 1
    10    5    6 ar
    11    5   41 1
    12    6   42 1
    13    7   27 1
    14    7    8 2
    15    8    9 1
    16    8   67 1
    17    9   10 2
    18    9   26 1
    19   10   11 1
    20   10   43 1
    21   11   16 ar
    22   11   12 ar
    23   12   13 ar
    24   12   44 1
    25   13   14 ar
    26   13   45 1
    27   14   15 ar
    28   14   17 1
    29   15   16 ar
    30   15   46 1
    31   16   47 1
    32   17   18 1
    33   17   22 1
    34   18   19 1
    35   18   48 1
    36   18   49 1
    37   19   20 1
    38   19   50 1
    39   19   51 1
    40   20   21 2
    41   20   52 1
    42   21   53 1
    43   22   23 1
    44   22   54 1
    45   22   55 1
    46   23   24 1
    47   23   56 1
    48   23   57 1
    49   24   25 2
    50   24   58 1
    51   25   59 1
    52   26   27 1
    53   26   60 1
    54   26   61 1
    55   27   28 1
    56   28   29 am
    57   28   62 1
    58   29   30 2
    59   29   31 1
    60   31   36 ar
    61   31   32 ar
    62   32   33 ar
    63   32   63 1
    64   33   34 ar
    65   33   64 1
    66   34   35 ar
    67   34   37 1
    68   35   36 ar
    69   35   65 1
    70   36   66 1
@<TRIPOS>MOLECULE
ZINC39601869
   58    60     0     0     0
SMALL
USER_CHARGES

@<TRIPOS>ATOM
      1 C1          0.0217   -2.3312   -1.4094 C.3       1 <0>         0.0397
      2 O1          0.0762   -0.9604   -1.0096 O.3       1 <0>        -0.2982
      3 C2          0.9115   -0.1447   -1.7105 C.2       1 <0>         0.1255
      4 C3          2.2930    0.0496   -1.3336 C.2       1 <0>        -0.1782
      5 C4          3.0391    0.8990   -2.1213 C.2       1 <0>        -0.2272
      6 S1          1.9669    1.4164   -3.3033 S.3       1 <0>         0.2707
      7 C5          0.5042    0.5321   -2.8080 C.2       1 <0>        -0.1810
      8 Cl1        -1.0644    0.5383   -3.5516 Cl        1 <0>         0.0427
      9 C6          2.8749   -0.6268   -0.1647 C.2       1 <0>         0.6001
     10 O2          2.1974   -0.8172    0.8276 O.2       1 <0>        -0.4901
     11 N1          4.1588   -1.0358   -0.1926 N.am      1 <0>        -0.6138
     12 C7          4.8880   -1.8101    0.8392 C.3       1 <0>         0.1239
     13 C8          5.7666   -2.7971    0.0383 C.3       1 <0>        -0.1136
     14 H1          6.7336   -2.9251    0.5247 H         1 <0>         0.1164
     15 C9          5.9433   -2.1363   -1.3391 C.3       1 <0>        -0.0715
     16 C10         5.1586   -0.8183   -1.2656 C.3       1 <0>         0.0933
     17 C11         7.4195   -1.8592   -1.6069 C.3       1 <0>        -0.1348
     18 C12         7.5752   -1.2558   -3.0057 C.3       1 <0>        -0.0100
     19 N2          7.0429   -2.1893   -4.0055 N.4       1 <0>        -0.5049
     20 C13         5.6022   -2.3782   -3.7970 C.3       1 <0>        -0.0101
     21 C14         5.3630   -3.0292   -2.4318 C.3       1 <0>        -0.1476
     22 C15         5.0700   -4.1262   -0.1003 C.2       1 <0>         0.5137
     23 O3          3.8637   -4.1692   -0.2181 O.2       1 <0>        -0.5168
     24 N3          5.7875   -5.2671   -0.0933 N.am      1 <0>        -0.7221
     25 C16         5.1103   -6.5591   -0.2280 C.3       1 <0>         0.1205
     26 C17         6.1463   -7.6844   -0.1897 C.3       1 <0>         0.0476
     27 O4          6.7682   -7.7157    1.0966 O.3       1 <0>        -0.3784
     28 C18         7.7578   -8.7367    1.2390 C.3       1 <0>         0.0613
     29 C19         8.3533   -8.6768    2.6471 C.3       1 <0>         0.0769
     30 O5          7.3422   -8.9941    3.6057 O.3       1 <0>        -0.5670
     31 H2          1.0122   -2.7765   -1.3162 H         1 <0>         0.0476
     32 H3         -0.6798   -2.8683   -0.7710 H         1 <0>         0.1032
     33 H4         -0.3090   -2.3944   -2.4462 H         1 <0>         0.0482
     34 H5          4.0779    1.1703   -2.0042 H         1 <0>         0.1977
     35 H6          5.5113   -1.1486    1.4408 H         1 <0>         0.0892
     36 H7          4.1870   -2.3534    1.4728 H         1 <0>         0.0998
     37 H8          4.6610   -0.6193   -2.2147 H         1 <0>         0.0882
     38 H9          5.8243    0.0043   -1.0042 H         1 <0>         0.0882
     39 H10         7.7988   -1.1579   -0.8638 H         1 <0>         0.1230
     40 H11         7.9812   -2.7915   -1.5482 H         1 <0>         0.0984
     41 H12         7.0267   -0.3154   -3.0586 H         1 <0>         0.1320
     42 H13         8.6307   -1.0719   -3.2063 H         1 <0>         0.1411
     43 H14         7.2017   -1.8168   -4.9297 H         1 <0>         0.4343
     44 H15         5.1005   -1.4110   -3.8310 H         1 <0>         0.1318
     45 H16         5.2031   -3.0217   -4.5811 H         1 <0>         0.1394
     46 H17         5.8508   -4.0035   -2.4027 H         1 <0>         0.0952
     47 H18         4.2922   -3.1528   -2.2701 H         1 <0>         0.1259
     48 H19         6.7523   -5.2326    0.0009 H         1 <0>         0.4021
     49 H20         4.4047   -6.6868    0.5929 H         1 <0>         0.0831
     50 H21         4.5741   -6.5912   -1.1764 H         1 <0>         0.0844
     51 H22         5.6539   -8.6383   -0.3785 H         1 <0>         0.0713
     52 H23         6.9026   -7.5082   -0.9546 H         1 <0>         0.0534
     53 H24         7.2988   -9.7124    1.0798 H         1 <0>         0.0613
     54 H25         8.5475   -8.5823    0.5037 H         1 <0>         0.0641
     55 H26         9.1687   -9.3957    2.7276 H         1 <0>         0.0643
     56 H27         8.7334   -7.6734    2.8385 H         1 <0>         0.0529
     57 H28         7.6496   -8.9754    4.5224 H         1 <0>         0.3845
     58 H29         7.5133   -3.0777   -3.9184 H         1 <0>         0.4285
@<TRIPOS>BOND
     1    1    2 1
     2    1   31 1
     3    1   32 1
     4    1   33 1
     5    2    3 1
     6    3    7 2
     7    3    4 1
     8    4    5 2
     9    4    9 1
    10    5    6 1
    11    5   34 1
    12    6    7 1
    13    7    8 1
    14    9   10 2
    15    9   11 am
    16   11   16 1
    17   11   12 1
    18   12   13 1
    19   12   35 1
    20   12   36 1
    21   13   14 1
    22   13   15 1
    23   13   22 1
    24   15   21 1
    25   15   16 1
    26   15   17 1
    27   16   37 1
    28   16   38 1
    29   17   18 1
    30   17   39 1
    31   17   40 1
    32   18   19 1
    33   18   41 1
    34   18   42 1
    35   19   20 1
    36   19   43 1
    37   19   58 1
    38   20   21 1
    39   20   44 1
    40   20   45 1
    41   21   46 1
    42   21   47 1
    43   22   23 2
    44   22   24 am
    45   24   25 1
    46   24   48 1
    47   25   26 1
    48   25   49 1
    49   25   50 1
    50   26   27 1
    51   26   51 1
    52   26   52 1
    53   27   28 1
    54   28   29 1
    55   28   53 1
    56   28   54 1
    57   29   30 1
    58   29   55 1
    59   29   56 1
    60   30   57 1
@<TRIPOS>MOLECULE
ZINC33682687
   54    57     0     0     0
SMALL
USER_CHARGES

@<TRIPOS>ATOM
      1 C1         -1.6304    1.2510   -2.8693 C.3       1 <0>        -0.1344
      2 C2         -1.3333   -0.1535   -2.4108 C.ar      1 <0>        -0.0257
      3 C3         -1.1329   -1.1550   -3.3437 C.ar      1 <0>        -0.0984
      4 C4         -0.8609   -2.4431   -2.9295 C.ar      1 <0>        -0.0675
      5 C5         -0.7879   -2.7338   -1.5686 C.ar      1 <0>        -0.0107
      6 C6         -0.9902   -1.7210   -0.6332 C.ar      1 <0>        -0.0909
      7 C7         -1.2564   -0.4353   -1.0588 C.ar      1 <0>        -0.1009
      8 N1         -0.5170   -4.0193   -1.1491 N.ar      1 <0>        -0.3908
      9 C8         -1.4462   -4.7014   -0.4769 C.ar      1 <0>         0.5755
     10 N2         -2.6732   -4.1354   -0.1974 N.pl3     1 <0>        -0.7821
     11 C9         -1.1459   -6.0120   -0.0598 C.ar      1 <0>        -0.3123
     12 C10        -1.8491   -7.0108    0.6489 C.2       1 <0>         0.1625
     13 N3         -1.0807   -8.0565    0.7600 N.2       1 <0>        -0.2137
     14 N4          0.1500   -7.8062    0.1403 N.pl3     1 <0>        -0.4360
     15 H1          0.8945   -8.4254    0.0844 H         1 <0>         0.4650
     16 C11         0.1216   -6.5427   -0.3714 C.ar      1 <0>         0.4051
     17 N5          0.9898   -5.7907   -1.0465 N.ar      1 <0>        -0.5123
     18 C12         0.6699   -4.5659   -1.4262 C.ar      1 <0>         0.3722
     19 S1          1.8534   -3.6179   -2.3236 S.3       1 <0>         0.1879
     20 C13         3.2826   -4.7255   -2.4704 C.3       1 <0>        -0.1741
     21 C14         4.3828   -4.0281   -3.2281 C.2       1 <0>         0.5335
     22 O1          4.2190   -2.8954   -3.6296 O.2       1 <0>        -0.4970
     23 N6          5.5489   -4.6630   -3.4596 N.am      1 <0>        -0.6569
     24 C15         6.6084   -3.9806   -4.0674 C.ar      1 <0>         0.1728
     25 C16         7.4767   -4.6575   -4.9148 C.ar      1 <0>        -0.1759
     26 C17         8.5226   -3.9838   -5.5148 C.ar      1 <0>        -0.0568
     27 C18         8.7086   -2.6357   -5.2737 C.ar      1 <0>        -0.2152
     28 C19         7.8447   -1.9546   -4.4279 C.ar      1 <0>         0.1492
     29 C20         6.7899   -2.6258   -3.8291 C.ar      1 <0>        -0.1546
     30 O2          8.0291   -0.6291   -4.1914 O.3       1 <0>        -0.3143
     31 C21         9.1324   -0.0005   -4.8469 C.3       1 <0>         0.0251
     32 C22        -3.2518   -6.8876    1.1860 C.3       1 <0>        -0.1025
     33 H2         -0.6958    1.7979   -2.9936 H         1 <0>         0.0903
     34 H3         -2.1614    1.2180   -3.8206 H         1 <0>         0.0811
     35 H4         -2.2489    1.7528   -2.1252 H         1 <0>         0.0804
     36 H5         -1.1897   -0.9286   -4.3982 H         1 <0>         0.1511
     37 H6         -0.7053   -3.2244   -3.6587 H         1 <0>         0.1447
     38 H7         -0.9352   -1.9409    0.4227 H         1 <0>         0.1402
     39 H8         -1.4094    0.3513   -0.3347 H         1 <0>         0.1500
     40 H9         -2.8309   -3.1985   -0.3929 H         1 <0>         0.4294
     41 H10         3.6392   -4.9922   -1.4755 H         1 <0>         0.1434
     42 H11         2.9889   -5.6286   -3.0053 H         1 <0>         0.1430
     43 H12         5.6535   -5.5931   -3.2048 H         1 <0>         0.4186
     44 H13         7.3340   -5.7111   -5.1043 H         1 <0>         0.1302
     45 H14         9.1966   -4.5116   -6.1732 H         1 <0>         0.1347
     46 H15         9.5276   -2.1116   -5.7440 H         1 <0>         0.1338
     47 H16         6.1135   -2.0962   -3.1745 H         1 <0>         0.1417
     48 H17        10.0601   -0.4843   -4.5414 H         1 <0>         0.0590
     49 H18         9.0134   -0.0916   -5.9265 H         1 <0>         0.0588
     50 H19         9.1651    1.0540   -4.5727 H         1 <0>         0.1043
     51 H20        -3.9652   -7.1230    0.3962 H         1 <0>         0.1056
     52 H21        -3.3856   -7.5821    2.0154 H         1 <0>         0.1080
     53 H22        -3.4191   -5.8685    1.5347 H         1 <0>         0.0858
     54 H23        -3.3780   -4.6744    0.1944 H         1 <0>         0.4402
@<TRIPOS>BOND
     1    1    2 1
     2    1   33 1
     3    1   34 1
     4    1   35 1
     5    2    7 ar
     6    2    3 ar
     7    3    4 ar
     8    3   36 1
     9    4    5 ar
    10    4   37 1
    11    5    6 ar
    12    5    8 1
    13    6    7 ar
    14    6   38 1
    15    7   39 1
    16    8   18 ar
    17    8    9 ar
    18    9   10 1
    19    9   11 ar
    20   10   40 1
    21   10   54 1
    22   11   16 ar
    23   11   12 1
    24   12   13 2
    25   12   32 1
    26   13   14 1
    27   14   15 1
    28   14   16 1
    29   16   17 ar
    30   17   18 ar
    31   18   19 1
    32   19   20 1
    33   20   21 1
    34   20   41 1
    35   20   42 1
    36   21   22 2
    37   21   23 am
    38   23   24 1
    39   23   43 1
    40   24   29 ar
    41   24   25 ar
    42   25   26 ar
    43   25   44 1
    44   26   27 ar
    45   26   45 1
    46   27   28 ar
    47   27   46 1
    48   28   29 ar
    49   28   30 1
    50   29   47 1
    51   30   31 1
    52   31   48 1
    53   31   49 1
    54   31   50 1
    55   32   51 1
    56   32   52 1
    57   32   53 1
@<TRIPOS>MOLECULE
ZINC63731319
   59    62     0     0     0
SMALL
USER_CHARGES

@<TRIPOS>ATOM
      1 C1         -0.0187    1.5258    0.0104 C.3       1 <0>        -0.1477
      2 C2          0.0021   -0.0041    0.0020 C.3       1 <0>        -0.0616
      3 C3          0.7421   -0.5109    1.2415 C.3       1 <0>        -0.1473
      4 C4         -1.4117   -0.5257    0.0127 C.ar      1 <0>        -0.0761
      5 C5         -2.2581   -0.2032    1.0577 C.ar      1 <0>        -0.0726
      6 C6         -3.5544   -0.6795    1.0706 C.ar      1 <0>        -0.1561
      7 C7         -4.0076   -1.4834    0.0324 C.ar      1 <0>         0.1677
      8 C8         -3.1548   -1.8054   -1.0158 C.ar      1 <0>        -0.1314
      9 C9         -1.8615   -1.3211   -1.0253 C.ar      1 <0>        -0.0727
     10 N1         -5.3179   -1.9673    0.0425 N.pl3     1 <0>        -0.4986
     11 C10        -5.9318   -2.8297   -0.9812 C.3       1 <0>         0.2687
     12 H1         -5.3728   -3.7609   -1.0732 H         1 <0>         0.1799
     13 N2         -7.3092   -3.1042   -0.5030 N.3       1 <0>        -0.4197
     14 N3         -7.2058   -2.8484    0.9444 N.4       1 <0>        -0.2906
     15 N4         -6.2617   -1.7279    1.0129 N.3       1 <0>        -0.2198
     16 S1         -5.9808   -1.9693   -2.5774 S.3       1 <0>        -0.0724
     17 C11        -6.9829   -0.4931   -2.2497 C.3       1 <0>        -0.1716
     18 C12        -7.1043    0.3219   -3.5115 C.2       1 <0>         0.4393
     19 O1         -6.5671   -0.0562   -4.5322 O.2       1 <0>        -0.4189
     20 C13        -7.8441    1.5273   -3.5063 C.2       1 <0>        -0.2720
     21 C14        -8.0572    2.3726   -4.5476 C.2       1 <0>         0.1409
     22 N5         -8.8026    3.4225   -4.1973 N.2       1 <0>        -0.4511
     23 C15        -9.1642    3.4160   -2.9477 C.2       1 <0>         0.1518
     24 C16        -8.5798    2.1570   -2.3370 C.3       1 <0>        -0.1033
     25 C17        -9.9885    4.4333   -2.2595 C.2       1 <0>         0.5899
     26 O2        -10.2538    4.3043   -1.0808 O.2       1 <0>        -0.5198
     27 N6        -10.4454    5.5032   -2.9399 N.am      1 <0>        -0.5919
     28 C18       -10.2063    5.7790   -4.3641 C.3       1 <0>         0.1035
     29 C19       -10.8965    7.1195   -4.6933 C.3       1 <0>        -0.1369
     30 C20       -11.0058    7.8042   -3.3054 C.3       1 <0>        -0.1352
     31 C21       -11.2732    6.5875   -2.3809 C.3       1 <0>         0.1019
     32 H2          1.0039    1.9031    0.0027 H         1 <0>         0.0651
     33 H3         -0.5459    1.8868   -0.8726 H         1 <0>         0.0575
     34 H4         -0.5289    1.8773    0.9072 H         1 <0>         0.0567
     35 H5          0.5123   -0.3556   -0.8948 H         1 <0>         0.0841
     36 H6          0.2319   -0.1594    2.1383 H         1 <0>         0.0566
     37 H7          0.7568   -1.6008    1.2356 H         1 <0>         0.0571
     38 H8          1.7647   -0.1336    1.2338 H         1 <0>         0.0651
     39 H9         -1.9050    0.4216    1.8647 H         1 <0>         0.1361
     40 H10        -4.2148   -0.4276    1.8872 H         1 <0>         0.1231
     41 H11        -3.5039   -2.4305   -1.8243 H         1 <0>         0.1350
     42 H12        -1.1992   -1.5674   -1.8420 H         1 <0>         0.1393
     43 H13        -7.9731   -2.4786   -0.9342 H         1 <0>         0.3981
     44 H14        -8.1024   -2.5863    1.3258 H         1 <0>         0.4609
     45 H15        -5.8352   -1.6693    1.9255 H         1 <0>         0.3787
     46 H16        -7.9755   -0.7948   -1.9151 H         1 <0>         0.1155
     47 H17        -6.5047    0.1060   -1.4748 H         1 <0>         0.1312
     48 H18        -7.6688    2.2137   -5.5427 H         1 <0>         0.1834
     49 H19        -9.3695    1.4974   -1.9773 H         1 <0>         0.1409
     50 H20        -7.8867    2.4055   -1.5333 H         1 <0>         0.1412
     51 H21        -9.1354    5.8576   -4.5517 H         1 <0>         0.0809
     52 H22       -10.6340    4.9825   -4.9728 H         1 <0>         0.0797
     53 H23       -10.2819    7.7139   -5.3693 H         1 <0>         0.0883
     54 H24       -11.8857    6.9496   -5.1186 H         1 <0>         0.0805
     55 H25       -10.0732    8.3026   -3.0410 H         1 <0>         0.0799
     56 H26       -11.8416    8.5035   -3.2794 H         1 <0>         0.0917
     57 H27       -12.3275    6.3123   -2.4076 H         1 <0>         0.0790
     58 H28       -10.9647    6.8124   -1.3599 H         1 <0>         0.0858
     59 H29        -6.8335   -3.6544    1.4239 H         1 <0>         0.4321
@<TRIPOS>BOND
     1    1    2 1
     2    1   32 1
     3    1   33 1
     4    1   34 1
     5    2    3 1
     6    2    4 1
     7    2   35 1
     8    3   36 1
     9    3   37 1
    10    3   38 1
    11    4    9 ar
    12    4    5 ar
    13    5    6 ar
    14    5   39 1
    15    6    7 ar
    16    6   40 1
    17    7    8 ar
    18    7   10 1
    19    8    9 ar
    20    8   41 1
    21    9   42 1
    22   10   15 1
    23   10   11 1
    24   11   12 1
    25   11   13 1
    26   11   16 1
    27   13   14 1
    28   13   43 1
    29   14   15 1
    30   14   44 1
    31   14   59 1
    32   15   45 1
    33   16   17 1
    34   17   18 1
    35   17   46 1
    36   17   47 1
    37   18   19 2
    38   18   20 1
    39   20   24 1
    40   20   21 2
    41   21   22 1
    42   21   48 1
    43   22   23 2
    44   23   24 1
    45   23   25 1
    46   24   49 1
    47   24   50 1
    48   25   26 2
    49   25   27 am
    50   27   31 1
    51   27   28 1
    52   28   29 1
    53   28   51 1
    54   28   52 1
    55   29   30 1
    56   29   53 1
    57   29   54 1
    58   30   31 1
    59   30   55 1
    60   30   56 1
    61   31   57 1
    62   31   58 1
@<TRIPOS>MOLECULE
ZINC19539216
   61    63     0     0     0
SMALL
USER_CHARGES
ethyl 2-oxo-4-[[4-[2-oxo-2-[[4-(trifluoromethoxy)phenyl]amino]ethyl]piperazin-1-yl]methyl]-3,6-dihydro-1H-pyrimidine-5-carboxylate
@<TRIPOS>ATOM
      1 C1         -3.0091   -6.0017    2.3225 C.3       1 <0>        -0.1587
      2 C2         -3.3217   -4.5891    1.8248 C.3       1 <0>         0.0660
      3 O1         -2.1183   -3.9672    1.3698 O.3       1 <0>        -0.3488
      4 C3         -2.2209   -2.7082    0.8952 C.2       1 <0>         0.5411
      5 O2         -3.3031   -2.1524    0.8736 O.2       1 <0>        -0.5142
      6 C4         -1.0693   -2.0323    0.4282 C.2       1 <0>        -0.2549
      7 C5         -1.1521   -0.7876   -0.0892 C.2       1 <0>         0.2468
      8 N1         -0.0394   -0.1359   -0.5389 N.am      1 <0>        -0.6666
      9 C6          1.1921   -0.6604   -0.5068 C.2       1 <0>         0.7018
     10 O3          2.1224   -0.0030   -0.9311 O.2       1 <0>        -0.5622
     11 N2          1.4340   -1.8936   -0.0200 N.am      1 <0>        -0.7362
     12 C7          0.2998   -2.6777    0.4973 C.3       1 <0>         0.1577
     13 C8         -2.4939   -0.1066   -0.1713 C.3       1 <0>         0.0708
     14 N3         -3.2092   -0.5764   -1.3653 N.3       1 <0>        -0.5191
     15 C9         -2.5259   -0.1444   -2.5925 C.3       1 <0>         0.0175
     16 C10        -3.2557   -0.7192   -3.8088 C.3       1 <0>        -0.0034
     17 N4         -4.6528   -0.2635   -3.7991 N.4       1 <0>        -0.3898
     18 C11        -5.3361   -0.6954   -2.5718 C.3       1 <0>         0.0024
     19 C12        -4.6063   -0.1206   -1.3555 C.3       1 <0>         0.0332
     20 C13        -5.3681   -0.7332   -4.9931 C.3       1 <0>        -0.0251
     21 C14        -4.7880   -0.0742   -6.2179 C.2       1 <0>         0.5023
     22 O4         -3.8691    0.7097   -6.1071 O.2       1 <0>        -0.5179
     23 N5         -5.2903   -0.3559   -7.4365 N.am      1 <0>        -0.6561
     24 C15        -4.6849    0.1744   -8.5834 C.ar      1 <0>         0.1051
     25 C16        -4.1338    1.4484   -8.5520 C.ar      1 <0>        -0.0731
     26 C17        -3.5326    1.9683   -9.6812 C.ar      1 <0>        -0.1736
     27 C18        -3.4895    1.2225  -10.8501 C.ar      1 <0>         0.1109
     28 C19        -4.0446   -0.0484  -10.8837 C.ar      1 <0>        -0.1037
     29 C20        -4.6409   -0.5717   -9.7535 C.ar      1 <0>        -0.0925
     30 O5         -2.9024    1.7372  -11.9633 O.3       1 <0>        -0.3077
     31 C21        -2.3512    3.0514  -11.8574 C.3       1 <0>         0.6048
     32 F1         -1.3602    3.0633  -10.8700 F         1 <0>        -0.1634
     33 F2         -1.7914    3.4226  -13.0846 F         1 <0>        -0.1240
     34 F3         -3.3626    3.9549  -11.5138 F         1 <0>        -0.1631
     35 H1         -3.9355   -6.4804    2.6727 H         1 <0>         0.0829
     36 H2         -2.2884   -5.9472    3.1517 H         1 <0>         0.0695
     37 H3         -2.5787   -6.5931    1.5009 H         1 <0>         0.0676
     38 H4         -4.0424   -4.6436    0.9956 H         1 <0>         0.0667
     39 H5         -3.7521   -3.9977    2.6464 H         1 <0>         0.0695
     40 H6         -0.1270    0.8780   -0.9565 H         1 <0>         0.4526
     41 H7          2.4489   -2.3175   -0.0030 H         1 <0>         0.4643
     42 H8          0.5475   -2.9007    1.5456 H         1 <0>         0.0792
     43 H9          0.2950   -3.6110   -0.0848 H         1 <0>         0.0792
     44 H10        -3.0823   -0.3463    0.7267 H         1 <0>         0.1544
     45 H11        -2.3493    0.9820   -0.2351 H         1 <0>         0.0585
     46 H12        -2.5296    0.9543   -2.6469 H         1 <0>         0.0661
     47 H13        -1.4876   -0.5075   -2.5813 H         1 <0>         0.1179
     48 H14        -2.7627   -0.3735   -4.7294 H         1 <0>         0.1493
     49 H15        -3.2272   -1.8181   -3.7680 H         1 <0>         0.1323
     50 H16        -6.3744   -0.3323   -2.5830 H         1 <0>         0.1400
     51 H17        -5.3325   -1.7940   -2.5173 H         1 <0>         0.1390
     52 H18        -5.0983   -0.4662   -0.4343 H         1 <0>         0.1352
     53 H19        -4.6338    0.9783   -1.3957 H         1 <0>         0.0630
     54 H20        -5.2615   -1.8247   -5.0787 H         1 <0>         0.1615
     55 H21        -6.4338   -0.4745   -4.9075 H         1 <0>         0.1649
     56 H22        -6.1755   -1.0021   -7.5306 H         1 <0>         0.4490
     57 H23        -4.1716    2.0310   -7.6434 H         1 <0>         0.1468
     58 H24        -3.0997    2.9573   -9.6555 H         1 <0>         0.1415
     59 H25        -4.0106   -0.6285  -11.7941 H         1 <0>         0.1509
     60 H26        -5.0728   -1.5613   -9.7797 H         1 <0>         0.1456
     61 H27        -4.6516    0.8363   -3.8182 H         1 <0>         0.4464
@<TRIPOS>BOND
     1    1    2 1
     2    1   35 1
     3    1   36 1
     4    1   37 1
     5    2    3 1
     6    2   38 1
     7    2   39 1
     8    3    4 1
     9    4    5 2
    10    4    6 1
    11    6   12 1
    12    6    7 2
    13    7    8 1
    14    7   13 1
    15    8    9 am
    16    8   40 1
    17    9   10 2
    18    9   11 am
    19   11   12 1
    20   11   41 1
    21   12   42 1
    22   12   43 1
    23   13   14 1
    24   13   44 1
    25   13   45 1
    26   14   19 1
    27   14   15 1
    28   15   16 1
    29   15   46 1
    30   15   47 1
    31   16   17 1
    32   16   48 1
    33   16   49 1
    34   17   18 1
    35   17   20 1
    36   17   61 1
    37   18   19 1
    38   18   50 1
    39   18   51 1
    40   19   52 1
    41   19   53 1
    42   20   21 1
    43   20   54 1
    44   20   55 1
    45   21   22 2
    46   21   23 am
    47   23   24 1
    48   23   56 1
    49   24   29 ar
    50   24   25 ar
    51   25   26 ar
    52   25   57 1
    53   26   27 ar
    54   26   58 1
    55   27   28 ar
    56   27   30 1
    57   28   29 ar
    58   28   59 1
    59   29   60 1
    60   30   31 1
    61   31   32 1
    62   31   33 1
    63   31   34 1
@<TRIPOS>MOLECULE
ZINC26836635
   67    69     0     0     0
SMALL
USER_CHARGES
3-[4-[[4-[2-[[(2R)-2-hydroxy-2-(3-pyridyl)ethyl]amino]ethyl]phenyl]sulfamoyl]phenyl]-1-propyl-urea
@<TRIPOS>ATOM
      1 C1        -15.0884   -3.6111   -0.0916 C.3       1 <0>        -0.1537
      2 C2        -14.3423   -3.7001   -1.4244 C.3       1 <0>        -0.1349
      3 C3        -13.7534   -2.3313   -1.7716 C.3       1 <0>         0.1361
      4 N1        -13.0391   -2.4166   -3.0478 N.am      1 <0>        -0.7486
      5 C4        -12.4352   -1.3242   -3.5563 C.2       1 <0>         0.7043
      6 O1        -12.4832   -0.2681   -2.9559 O.2       1 <0>        -0.5715
      7 N2        -11.7780   -1.4027   -4.7304 N.am      1 <0>        -0.7028
      8 C5        -11.0606   -0.2991   -5.2058 C.ar      1 <0>         0.2403
      9 C6        -10.4335    0.5602   -4.3132 C.ar      1 <0>        -0.1471
     10 C7         -9.7259    1.6481   -4.7856 C.ar      1 <0>         0.0047
     11 C8         -9.6416    1.8823   -6.1458 C.ar      1 <0>        -0.7017
     12 C9        -10.2697    1.0317   -7.0370 C.ar      1 <0>         0.0070
     13 C10       -10.9740   -0.0613   -6.5712 C.ar      1 <0>        -0.1725
     14 S1         -8.7379    3.2714   -6.7444 S.o2      1 <0>         2.6926
     15 O2         -8.5972    4.1667   -5.6499 O.2       1 <0>        -0.9499
     16 O3         -9.3476    3.6554   -7.9692 O.2       1 <0>        -0.9448
     17 N3         -7.2151    2.7400   -7.1199 N.pl3     1 <0>        -1.0755
     18 C11        -6.3965    2.2048   -6.1228 C.ar      1 <0>         0.1738
     19 C12        -5.7030    1.0231   -6.3513 C.ar      1 <0>        -0.1285
     20 C13        -4.8948    0.4964   -5.3630 C.ar      1 <0>        -0.0901
     21 C14        -4.7755    1.1441   -4.1470 C.ar      1 <0>        -0.1217
     22 C15        -5.4689    2.3177   -3.9142 C.ar      1 <0>        -0.0827
     23 C16        -6.2744    2.8528   -4.9002 C.ar      1 <0>        -0.1525
     24 C17        -3.8927    0.5664   -3.0709 C.3       1 <0>        -0.0979
     25 C18        -2.4762    1.1258   -3.2185 C.3       1 <0>        -0.0022
     26 N4         -1.6157    0.5627   -2.1696 N.4       1 <0>        -0.5365
     27 C19        -0.2447    1.0785   -2.2802 C.3       1 <0>         0.0088
     28 C20         0.6197    0.4708   -1.1736 C.3       1 <0>         0.1512
     29 H1          0.6185   -0.6285   -1.2139 H         1 <0>         0.0862
     30 C21         2.0262    1.0000   -1.2871 C.ar      1 <0>        -0.2079
     31 C22         2.9926    0.2831   -1.9762 C.ar      1 <0>        -0.0579
     32 C23         4.2731    0.8085   -2.0548 C.ar      1 <0>        -0.1693
     33 C24         4.5420    2.0210   -1.4479 C.ar      1 <0>         0.1220
     34 N5          3.5978    2.6753   -0.8007 N.ar      1 <0>        -0.4800
     35 C25         2.3676    2.2085   -0.7106 C.ar      1 <0>         0.1273
     36 O4          0.0792    0.8242    0.1012 O.3       1 <0>        -0.6069
     37 H2        -15.5118   -4.5952    0.1580 H         1 <0>         0.0636
     38 H3        -15.8999   -2.8731   -0.1742 H         1 <0>         0.0602
     39 H4        -14.3899   -3.3010    0.6996 H         1 <0>         0.0588
     40 H5        -13.5308   -4.4381   -1.3418 H         1 <0>         0.0693
     41 H6        -15.0407   -4.0102   -2.2156 H         1 <0>         0.0707
     42 H7        -14.5649   -1.5933   -1.8542 H         1 <0>         0.0686
     43 H8        -13.0549   -2.0212   -0.9804 H         1 <0>         0.0673
     44 H9        -12.9957   -3.3721   -3.5910 H         1 <0>         0.4191
     45 H10       -11.8055   -2.3341   -5.3149 H         1 <0>         0.4348
     46 H11       -10.4987    0.3776   -3.2507 H         1 <0>         0.1447
     47 H12        -9.2377    2.3166   -4.0919 H         1 <0>         0.1410
     48 H13       -10.2056    1.2197   -8.0986 H         1 <0>         0.1432
     49 H14       -11.4604   -0.7279   -7.2679 H         1 <0>         0.1382
     50 H15        -6.8482    2.8085   -8.1547 H         1 <0>         0.4582
     51 H16        -5.7955    0.5169   -7.3008 H         1 <0>         0.1342
     52 H17        -4.3551   -0.4221   -5.5401 H         1 <0>         0.1274
     53 H18        -5.3772    2.8185   -2.9617 H         1 <0>         0.1314
     54 H19        -6.8122    3.7718   -4.7193 H         1 <0>         0.1610
     55 H20        -4.2932    0.8381   -2.0831 H         1 <0>         0.0967
     56 H21        -3.8662   -0.5291   -3.1672 H         1 <0>         0.0948
     57 H22        -2.0758    0.8541   -4.2064 H         1 <0>         0.1291
     58 H23        -2.5027    2.2213   -3.1222 H         1 <0>         0.1309
     59 H24        -2.0161    0.8344   -1.1818 H         1 <0>         0.4596
     60 H25         0.1713    0.8065   -3.2615 H         1 <0>         0.1400
     61 H26        -0.2555    2.1736   -2.1773 H         1 <0>         0.1364
     62 H27         2.7535   -0.6623   -2.4404 H         1 <0>         0.1380
     63 H28         5.0506    0.2774   -2.5838 H         1 <0>         0.1449
     64 H29         5.5369    2.4373   -1.5048 H         1 <0>         0.1652
     65 H30         1.6195    2.7753   -0.1762 H         1 <0>         0.1613
     66 H31         0.5694    0.4756    1.0222 H         1 <0>         0.4472
     67 H32        -1.5893   -0.5328   -2.2659 H         1 <0>         0.4468
@<TRIPOS>BOND
     1    1    2 1
     2    1   37 1
     3    1   38 1
     4    1   39 1
     5    2    3 1
     6    2   40 1
     7    2   41 1
     8    3    4 1
     9    3   42 1
    10    3   43 1
    11    4    5 am
    12    4   44 1
    13    5    6 2
    14    5    7 am
    15    7    8 1
    16    7   45 1
    17    8   13 ar
    18    8    9 ar
    19    9   10 ar
    20    9   46 1
    21   10   11 ar
    22   10   47 1
    23   11   12 ar
    24   11   14 1
    25   12   13 ar
    26   12   48 1
    27   13   49 1
    28   14   15 2
    29   14   16 2
    30   14   17 1
    31   17   18 1
    32   17   50 1
    33   18   23 ar
    34   18   19 ar
    35   19   20 ar
    36   19   51 1
    37   20   21 ar
    38   20   52 1
    39   21   22 ar
    40   21   24 1
    41   22   23 ar
    42   22   53 1
    43   23   54 1
    44   24   25 1
    45   24   55 1
    46   24   56 1
    47   25   26 1
    48   25   57 1
    49   25   58 1
    50   26   27 1
    51   26   59 1
    52   26   67 1
    53   27   28 1
    54   27   60 1
    55   27   61 1
    56   28   29 1
    57   28   30 1
    58   28   36 1
    59   30   35 ar
    60   30   31 ar
    61   31   32 ar
    62   31   62 1
    63   32   33 ar
    64   32   63 1
    65   33   34 ar
    66   33   64 1
    67   34   35 ar
    68   35   65 1
    69   36   66 1
@<TRIPOS>MOLECULE
ZINC08583217
   66    68     0     0     0
SMALL
USER_CHARGES

@<TRIPOS>ATOM
      1 C1          0.0823    1.4510   -0.2163 C.3       1 <0>        -0.1882
      2 C2          0.0237   -0.0664   -0.0289 C.3       1 <0>        -0.0168
      3 N1         -1.3740   -0.4850    0.1418 N.4       1 <0>        -0.3857
      4 C3         -2.1159   -0.2330   -1.1009 C.3       1 <0>        -0.0147
      5 C4         -3.5996   -0.5332   -0.8788 C.3       1 <0>        -0.1892
      6 C5         -1.4206   -1.9189    0.4577 C.3       1 <0>        -0.0105
      7 C6         -0.7562   -2.1642    1.8139 C.3       1 <0>        -0.1634
      8 C7         -0.8047   -3.6576    2.1429 C.3       1 <0>         0.1246
      9 N2         -0.1685   -3.8925    3.4414 N.am      1 <0>        -0.7350
     10 C8         -0.0943   -5.1428    3.9392 C.2       1 <0>         0.5702
     11 O1         -0.5555   -6.0758    3.3105 O.2       1 <0>        -0.5286
     12 C9          0.5464   -5.3793    5.2469 C.ar      1 <0>        -0.1553
     13 C10         1.0713   -4.3057    5.9719 C.ar      1 <0>        -0.0673
     14 C11         1.6665   -4.5251    7.1955 C.ar      1 <0>        -0.1413
     15 C12         1.7460   -5.8126    7.7063 C.ar      1 <0>         0.1975
     16 C13         1.2301   -6.8938    6.9845 C.ar      1 <0>         0.0936
     17 C14         0.6232   -6.6764    5.7629 C.ar      1 <0>        -0.0555
     18 N3          1.3405   -8.1902    7.5020 N.am      1 <0>        -0.6518
     19 C15         2.1003   -8.4375    8.5846 C.2       1 <0>         0.5219
     20 O2          2.0861   -9.5406    9.0888 O.2       1 <0>        -0.5001
     21 C16         2.9697   -7.3574    9.1770 C.3       1 <0>         0.1608
     22 H1          3.0824   -7.5266   10.2479 H         1 <0>         0.1437
     23 N4          2.3342   -6.0517    8.9498 N.pl3     1 <0>        -0.7423
     24 C17         4.3451   -7.3827    8.5073 C.3       1 <0>        -0.6439
     25 S1          5.4360   -6.1834    9.3211 S.o2      1 <0>         2.4167
     26 O3          4.9230   -4.8788    9.0880 O.2       1 <0>        -0.9149
     27 O4          5.6558   -6.6108   10.6583 O.2       1 <0>        -0.9079
     28 C18         6.9877   -6.3630    8.3988 C.3       1 <0>        -0.5710
     29 C19         8.0182   -5.4177    8.9606 C.ar      1 <0>        -0.0996
     30 C20         8.1286   -4.1360    8.4545 C.ar      1 <0>        -0.0585
     31 C21         9.0731   -3.2682    8.9687 C.ar      1 <0>        -0.1478
     32 C22         9.9098   -3.6824    9.9916 C.ar      1 <0>         0.1309
     33 C23         9.7990   -4.9655   10.4987 C.ar      1 <0>        -0.1448
     34 C24         8.8493   -5.8312    9.9863 C.ar      1 <0>         0.0057
     35 Cl1         8.7054   -7.4388   10.6256 Cl        1 <0>        -0.0317
     36 F1         10.8339   -2.8346   10.4940 F         1 <0>        -0.1236
     37 H2          1.1228    1.7753   -0.2311 H         1 <0>         0.1064
     38 H3         -0.3953    1.7194   -1.1586 H         1 <0>         0.0811
     39 H4         -0.4388    1.9392    0.6072 H         1 <0>         0.0798
     40 H5          0.4455   -0.5574   -0.9059 H         1 <0>         0.1303
     41 H6          0.5971   -0.3457    0.8550 H         1 <0>         0.1312
     42 H7         -1.9958    0.8109   -1.3904 H         1 <0>         0.1328
     43 H8         -1.7294   -0.8761   -1.8915 H         1 <0>         0.1302
     44 H9         -4.1656   -0.2421   -1.7637 H         1 <0>         0.1067
     45 H10        -3.7314   -1.6000   -0.6980 H         1 <0>         0.0813
     46 H11        -3.9590    0.0285   -0.0166 H         1 <0>         0.0798
     47 H12        -2.4588   -2.2488    0.4968 H         1 <0>         0.1372
     48 H13        -0.8905   -2.4782   -0.3132 H         1 <0>         0.1346
     49 H14         0.2820   -1.8343    1.7748 H         1 <0>         0.0950
     50 H15        -1.2864   -1.6049    2.5847 H         1 <0>         0.0954
     51 H16        -1.8428   -3.9875    2.1820 H         1 <0>         0.0797
     52 H17        -0.2745   -4.2169    1.3720 H         1 <0>         0.0795
     53 H18         0.1994   -3.1482    3.9430 H         1 <0>         0.4027
     54 H19         1.0108   -3.3039    5.5729 H         1 <0>         0.1288
     55 H20         2.0710   -3.6954    7.7561 H         1 <0>         0.1469
     56 H21         0.2132   -7.5061    5.2062 H         1 <0>         0.1454
     57 H22         0.8632   -8.9187    7.0751 H         1 <0>         0.4188
     58 H23         2.3240   -5.3747    9.6444 H         1 <0>         0.4239
     59 H24         4.7734   -8.3812    8.5947 H         1 <0>         0.1548
     60 H25         4.2411   -7.1229    7.4539 H         1 <0>         0.1411
     61 H26         7.3474   -7.3880    8.4890 H         1 <0>         0.1488
     62 H27         6.8150   -6.1297    7.3482 H         1 <0>         0.1502
     63 H28         7.4765   -3.8128    7.6565 H         1 <0>         0.1512
     64 H29         9.1591   -2.2672    8.5726 H         1 <0>         0.1514
     65 H30        10.4512   -5.2896   11.2961 H         1 <0>         0.1565
     66 H31        -1.7925    0.0392    0.8955 H         1 <0>         0.4224
@<TRIPOS>BOND
     1    1    2 1
     2    1   37 1
     3    1   38 1
     4    1   39 1
     5    2    3 1
     6    2   40 1
     7    2   41 1
     8    3    4 1
     9    3    6 1
    10    3   66 1
    11    4    5 1
    12    4   42 1
    13    4   43 1
    14    5   44 1
    15    5   45 1
    16    5   46 1
    17    6    7 1
    18    6   47 1
    19    6   48 1
    20    7    8 1
    21    7   49 1
    22    7   50 1
    23    8    9 1
    24    8   51 1
    25    8   52 1
    26    9   10 am
    27    9   53 1
    28   10   11 2
    29   10   12 1
    30   12   17 ar
    31   12   13 ar
    32   13   14 ar
    33   13   54 1
    34   14   15 ar
    35   14   55 1
    36   15   23 1
    37   15   16 ar
    38   16   17 ar
    39   16   18 1
    40   17   56 1
    41   18   19 am
    42   18   57 1
    43   19   20 2
    44   19   21 1
    45   21   22 1
    46   21   23 1
    47   21   24 1
    48   23   58 1
    49   24   25 1
    50   24   59 1
    51   24   60 1
    52   25   26 2
    53   25   27 2
    54   25   28 1
    55   28   29 1
    56   28   61 1
    57   28   62 1
    58   29   34 ar
    59   29   30 ar
    60   30   31 ar
    61   30   63 1
    62   31   32 ar
    63   31   64 1
    64   32   33 ar
    65   32   36 1
    66   33   34 ar
    67   33   65 1
    68   34   35 1
@<TRIPOS>MOLECULE
ZINC39693518
   78    80     0     0     0
SMALL
USER_CHARGES

@<TRIPOS>ATOM
      1 C1          1.0168   -1.1807    2.4094 C.3       1 <0>        -0.0721
      2 C2          0.5077   -1.6372    1.0665 C.2       1 <0>         0.0240
      3 C3          0.2590   -2.9582    0.6870 C.2       1 <0>        -0.1936
      4 C4         -0.1918   -2.8856   -0.6196 C.2       1 <0>        -0.0489
      5 N1         -0.1912   -1.5603   -0.9506 N.pl3     1 <0>        -0.2375
      6 N2          0.2148   -0.8658    0.0507 N.2       1 <0>        -0.2585
      7 C5         -0.5971   -1.0140   -2.2479 C.3       1 <0>         0.1740
      8 C6         -2.0130   -1.4887   -2.5807 C.3       1 <0>        -0.1714
      9 C7         -0.5727    0.5147   -2.1877 C.3       1 <0>        -0.1478
     10 C8          0.3704   -1.4973   -3.3301 C.3       1 <0>        -0.1650
     11 C9         -0.5908   -4.0107   -1.4801 C.2       1 <0>         0.6184
     12 O1         -0.8302   -3.8209   -2.6574 O.2       1 <0>        -0.5147
     13 N3         -0.6911   -5.2516   -0.9635 N.am      1 <0>        -0.6099
     14 C10        -0.5720   -5.6564    0.4570 C.3       1 <0>         0.0947
     15 C11        -1.6543   -6.7430    0.6453 C.3       1 <0>        -0.1137
     16 H1         -2.5704   -6.3021    1.0383 H         1 <0>         0.1158
     17 C12        -1.8937   -7.3069   -0.7653 C.3       1 <0>        -0.0735
     18 C13        -0.9520   -6.5189   -1.6875 C.3       1 <0>         0.1120
     19 C14        -1.5522   -8.7933   -0.8052 C.3       1 <0>        -0.1473
     20 C15        -1.8534   -9.3442   -2.2019 C.3       1 <0>        -0.0078
     21 N4         -3.2727   -9.1393   -2.5153 N.4       1 <0>        -0.5048
     22 C16        -3.5718   -7.7031   -2.5661 C.3       1 <0>        -0.0114
     23 C17        -3.3434   -7.0829   -1.1848 C.3       1 <0>        -0.1350
     24 C18        -1.1562   -7.8253    1.5681 C.2       1 <0>         0.5237
     25 O2          0.0330   -8.0466    1.6570 O.2       1 <0>        -0.5137
     26 N5         -2.0322   -8.5473    2.2946 N.am      1 <0>        -0.7255
     27 C19        -1.5441   -9.5176    3.2777 C.3       1 <0>         0.1040
     28 C20        -2.7342  -10.1961    3.9589 C.3       1 <0>         0.1291
     29 N6         -2.2461  -11.1664    4.9421 N.am      1 <0>        -0.7131
     30 C21        -3.1221  -11.8884    5.6686 C.2       1 <0>         0.6542
     31 O3         -4.3167  -11.7346    5.5081 O.2       1 <0>        -0.5623
     32 O4         -2.6735  -12.7801    6.5721 O.3       1 <0>        -0.3550
     33 C22        -3.6579  -13.5105    7.3066 C.3       1 <0>         0.1352
     34 C23        -4.5283  -14.3112    6.3360 C.3       1 <0>        -0.1859
     35 C24        -2.9635  -14.4677    8.2775 C.3       1 <0>        -0.1430
     36 C25        -4.5357  -12.5347    8.0928 C.3       1 <0>        -0.1871
     37 H2          0.1728   -0.9904    3.0724 H         1 <0>         0.0759
     38 H3          1.6500   -1.9561    2.8406 H         1 <0>         0.0776
     39 H4          1.5959   -0.2654    2.2865 H         1 <0>         0.0755
     40 H5          0.3907   -3.8473    1.2857 H         1 <0>         0.1658
     41 H6         -2.7277   -0.9835   -1.9310 H         1 <0>         0.0560
     42 H7         -2.2394   -1.2550   -3.6210 H         1 <0>         0.0805
     43 H8         -2.0806   -2.5657   -2.4272 H         1 <0>         0.0913
     44 H9          0.4360    0.8528   -1.9506 H         1 <0>         0.0719
     45 H10        -0.8747    0.9211   -3.1530 H         1 <0>         0.0790
     46 H11        -1.2620    0.8590   -1.4168 H         1 <0>         0.0685
     47 H12         0.4911   -2.5779   -3.2533 H         1 <0>         0.0873
     48 H13        -0.0282   -1.2452   -4.3128 H         1 <0>         0.0803
     49 H14         1.3376   -1.0132   -3.1952 H         1 <0>         0.0586
     50 H15         0.4180   -6.0681    0.6530 H         1 <0>         0.1053
     51 H16        -0.7680   -4.8073    1.1118 H         1 <0>         0.1098
     52 H17        -1.4365   -6.3184   -2.6431 H         1 <0>         0.0932
     53 H18        -0.0231   -7.0687   -1.8389 H         1 <0>         0.0882
     54 H19        -0.4943   -8.9298   -0.5806 H         1 <0>         0.1267
     55 H20        -2.1530   -9.3246   -0.0671 H         1 <0>         0.0975
     56 H21        -1.2403   -8.8235   -2.9375 H         1 <0>         0.1338
     57 H22        -1.6258  -10.4098   -2.2288 H         1 <0>         0.1399
     58 H23        -3.4820   -9.5570   -3.4096 H         1 <0>         0.4349
     59 H24        -2.9178   -7.2215   -3.2930 H         1 <0>         0.1345
     60 H25        -4.6111   -7.5589   -2.8615 H         1 <0>         0.1404
     61 H26        -4.0086   -7.5528   -0.4604 H         1 <0>         0.0975
     62 H27        -3.5486   -6.0132   -1.2277 H         1 <0>         0.1189
     63 H28        -2.9858   -8.4246    2.1664 H         1 <0>         0.4035
     64 H29        -0.9359  -10.2696    2.7751 H         1 <0>         0.0829
     65 H30        -0.9412   -9.0040    4.0266 H         1 <0>         0.0845
     66 H31        -3.3424   -9.4441    4.4616 H         1 <0>         0.0798
     67 H32        -3.3371  -10.7097    3.2100 H         1 <0>         0.0754
     68 H33        -1.2925  -11.2891    5.0702 H         1 <0>         0.4112
     69 H34        -3.9030  -15.0064    5.7759 H         1 <0>         0.0598
     70 H35        -5.2792  -14.8684    6.8963 H         1 <0>         0.0737
     71 H36        -5.0230  -13.6293    5.6444 H         1 <0>         0.0850
     72 H37        -2.3434  -13.8973    8.9690 H         1 <0>         0.0687
     73 H38        -3.7143  -15.0249    8.8378 H         1 <0>         0.0841
     74 H39        -2.3381  -15.1629    7.7174 H         1 <0>         0.0678
     75 H40        -5.0304  -11.8528    7.4012 H         1 <0>         0.0856
     76 H41        -5.2865  -13.0919    8.6531 H         1 <0>         0.0737
     77 H42        -3.9156  -11.9643    8.7843 H         1 <0>         0.0612
     78 H43        -3.8393   -9.5745   -1.8028 H         1 <0>         0.4279
@<TRIPOS>BOND
     1    1    2 1
     2    1   37 1
     3    1   38 1
     4    1   39 1
     5    2    6 2
     6    2    3 1
     7    3    4 2
     8    3   40 1
     9    4    5 1
    10    4   11 1
    11    5    6 1
    12    5    7 1
    13    7    8 1
    14    7    9 1
    15    7   10 1
    16    8   41 1
    17    8   42 1
    18    8   43 1
    19    9   44 1
    20    9   45 1
    21    9   46 1
    22   10   47 1
    23   10   48 1
    24   10   49 1
    25   11   12 2
    26   11   13 am
    27   13   18 1
    28   13   14 1
    29   14   15 1
    30   14   50 1
    31   14   51 1
    32   15   16 1
    33   15   17 1
    34   15   24 1
    35   17   23 1
    36   17   18 1
    37   17   19 1
    38   18   52 1
    39   18   53 1
    40   19   20 1
    41   19   54 1
    42   19   55 1
    43   20   21 1
    44   20   56 1
    45   20   57 1
    46   21   22 1
    47   21   58 1
    48   21   78 1
    49   22   23 1
    50   22   59 1
    51   22   60 1
    52   23   61 1
    53   23   62 1
    54   24   25 2
    55   24   26 am
    56   26   27 1
    57   26   63 1
    58   27   28 1
    59   27   64 1
    60   27   65 1
    61   28   29 1
    62   28   66 1
    63   28   67 1
    64   29   30 am
    65   29   68 1
    66   30   31 2
    67   30   32 1
    68   32   33 1
    69   33   34 1
    70   33   35 1
    71   33   36 1
    72   34   69 1
    73   34   70 1
    74   34   71 1
    75   35   72 1
    76   35   73 1
    77   35   74 1
    78   36   75 1
    79   36   76 1
    80   36   77 1
@<TRIPOS>MOLECULE
ZINC59423213
   72    73     0     0     0
SMALL
USER_CHARGES

@<TRIPOS>ATOM
      1 C1         -1.3750   -0.1596   -4.8817 C.3       1 <0>        -0.1559
      2 C2         -0.3389   -0.7395   -3.9169 C.3       1 <0>        -0.1166
      3 C3          0.9203   -1.1283   -4.6941 C.3       1 <0>        -0.1477
      4 C4          0.0170    0.3084   -2.8604 C.3       1 <0>         0.1058
      5 N1         -1.1618    0.5928   -2.0382 N.am      1 <0>        -0.5342
      6 C5         -2.0318    1.5904   -2.4124 C.2       1 <0>         0.5032
      7 C6         -3.1382    1.8481   -1.6292 C.2       1 <0>        -0.1661
      8 C7         -3.3425    1.0794   -0.4680 C.2       1 <0>         0.5745
      9 O1         -4.3122    1.2858    0.2420 O.2       1 <0>        -0.5100
     10 N2         -2.4597    0.1137   -0.1463 N.am      1 <0>        -0.6592
     11 H1         -2.5997   -0.4168    0.6536 H         1 <0>         0.4369
     12 C8         -1.3898   -0.1270   -0.9247 C.2       1 <0>         0.7088
     13 O2         -0.6114   -1.0080   -0.6137 O.2       1 <0>        -0.5173
     14 N3         -4.0488    2.8651   -1.9860 N.am      1 <0>        -0.4979
     15 C9         -4.7908    2.7748   -3.2460 C.3       1 <0>         0.0886
     16 C10        -6.1670    2.1595   -2.9845 C.3       1 <0>        -0.1075
     17 C11        -6.9989    2.2066   -4.2677 C.3       1 <0>        -0.1519
     18 C12        -5.9991    0.7055   -2.5387 C.3       1 <0>        -0.1559
     19 C13        -4.2363    3.9208   -1.1668 C.2       1 <0>         0.5045
     20 O3         -3.6914    3.9520   -0.0832 O.2       1 <0>        -0.4989
     21 C14        -5.1225    5.0609   -1.5977 C.3       1 <0>        -0.0346
     22 N4         -5.0452    6.1427   -0.6069 N.4       1 <0>        -0.3692
     23 C15        -6.0319    7.1799   -0.9363 C.3       1 <0>         0.0232
     24 C16        -7.4217    6.6169   -0.7861 C.2       1 <0>        -0.2411
     25 C17        -8.2898    7.2142   -0.0079 C.2       1 <0>        -0.0974
     26 C18        -3.6972    6.7263   -0.6233 C.3       1 <0>         0.0427
     27 C19        -3.5802    7.7513    0.4753 C.ar      1 <0>        -0.2003
     28 C20        -3.9097    9.0708    0.2261 C.ar      1 <0>        -0.0584
     29 C21        -3.8028   10.0123    1.2313 C.ar      1 <0>        -0.1519
     30 C22        -3.3649    9.6328    2.4918 C.ar      1 <0>         0.1666
     31 C23        -3.0353    8.3082    2.7395 C.ar      1 <0>        -0.2083
     32 C24        -3.1489    7.3695    1.7323 C.ar      1 <0>        -0.0411
     33 O4         -3.2585   10.5573    3.4823 O.3       1 <0>        -0.3078
     34 C25        -2.8011   10.0951    4.7547 C.3       1 <0>         0.0209
     35 N5         -1.8014    2.3221   -3.5527 N.pl3     1 <0>        -0.8319
     36 H2         -1.6286   -0.9061   -5.6344 H         1 <0>         0.0694
     37 H3         -2.2722    0.1174   -4.3280 H         1 <0>         0.0516
     38 H4         -0.9625    0.7233   -5.3702 H         1 <0>         0.0571
     39 H5         -0.7514   -1.6224   -3.4284 H         1 <0>         0.0863
     40 H6          1.3329   -0.2454   -5.1825 H         1 <0>         0.0599
     41 H7          1.6585   -1.5415   -4.0067 H         1 <0>         0.0651
     42 H8          0.6668   -1.8748   -5.4467 H         1 <0>         0.0682
     43 H9          0.8185   -0.0718   -2.2271 H         1 <0>         0.1177
     44 H10         0.3459    1.2235   -3.3528 H         1 <0>         0.0933
     45 H11        -4.9131    3.7724   -3.6679 H         1 <0>         0.0871
     46 H12        -4.2401    2.1485   -3.9479 H         1 <0>         0.0952
     47 H13        -6.6743    2.7233   -2.2017 H         1 <0>         0.0703
     48 H14        -6.4915    1.6428   -5.0506 H         1 <0>         0.0620
     49 H15        -7.9793    1.7682   -4.0815 H         1 <0>         0.0667
     50 H16        -7.1184    3.2424   -4.5854 H         1 <0>         0.0572
     51 H17        -5.3991    0.1674   -3.2726 H         1 <0>         0.0528
     52 H18        -5.4996    0.6778   -1.5703 H         1 <0>         0.0693
     53 H19        -6.9791    0.2355   -2.4556 H         1 <0>         0.0600
     54 H20        -4.7912    5.4321   -2.5675 H         1 <0>         0.1572
     55 H21        -6.1522    4.7117   -1.6747 H         1 <0>         0.1606
     56 H22        -5.9081    8.0267   -0.2613 H         1 <0>         0.1379
     57 H23        -5.8827    7.5099   -1.9644 H         1 <0>         0.1360
     58 H24        -7.7020    5.7210   -1.3201 H         1 <0>         0.1324
     59 H25        -8.0095    8.1101    0.5261 H         1 <0>         0.1121
     60 H26        -9.2858    6.8107    0.0998 H         1 <0>         0.1236
     61 H27        -2.9589    5.9400   -0.4667 H         1 <0>         0.1432
     62 H28        -3.5200    7.2045   -1.5867 H         1 <0>         0.1319
     63 H29        -4.2506    9.3657   -0.7554 H         1 <0>         0.1372
     64 H30        -4.0597   11.0430    1.0360 H         1 <0>         0.1435
     65 H31        -2.6941    8.0103    3.7199 H         1 <0>         0.1406
     66 H32        -2.8966    6.3374    1.9257 H         1 <0>         0.1377
     67 H33        -3.4866    9.3372    5.1339 H         1 <0>         0.0621
     68 H34        -1.8056    9.6640    4.6483 H         1 <0>         0.0627
     69 H35        -2.7621   10.9315    5.4526 H         1 <0>         0.1109
     70 H36        -0.9844    2.1883   -4.0581 H         1 <0>         0.4143
     71 H37        -2.4560    2.9724   -3.8522 H         1 <0>         0.4202
     72 H38        -5.2402    5.7724    0.3113 H         1 <0>         0.4318
@<TRIPOS>BOND
     1    1    2 1
     2    1   36 1
     3    1   37 1
     4    1   38 1
     5    2    3 1
     6    2    4 1
     7    2   39 1
     8    3   40 1
     9    3   41 1
    10    3   42 1
    11    4    5 1
    12    4   43 1
    13    4   44 1
    14    5   12 am
    15    5    6 1
    16    6    7 2
    17    6   35 1
    18    7    8 1
    19    7   14 1
    20    8    9 2
    21    8   10 am
    22   10   11 1
    23   10   12 am
    24   12   13 2
    25   14   15 1
    26   14   19 am
    27   15   16 1
    28   15   45 1
    29   15   46 1
    30   16   17 1
    31   16   18 1
    32   16   47 1
    33   17   48 1
    34   17   49 1
    35   17   50 1
    36   18   51 1
    37   18   52 1
    38   18   53 1
    39   19   20 2
    40   19   21 1
    41   21   22 1
    42   21   54 1
    43   21   55 1
    44   22   23 1
    45   22   26 1
    46   22   72 1
    47   23   24 1
    48   23   56 1
    49   23   57 1
    50   24   25 2
    51   24   58 1
    52   25   59 1
    53   25   60 1
    54   26   27 1
    55   26   61 1
    56   26   62 1
    57   27   32 ar
    58   27   28 ar
    59   28   29 ar
    60   28   63 1
    61   29   30 ar
    62   29   64 1
    63   30   31 ar
    64   30   33 1
    65   31   32 ar
    66   31   65 1
    67   32   66 1
    68   33   34 1
    69   34   67 1
    70   34   68 1
    71   34   69 1
    72   35   70 1
    73   35   71 1
@<TRIPOS>MOLECULE
ZINC02505834
   49    51     0     0     0
SMALL
USER_CHARGES
(4R,5R,6R)-5-(4-chlorobenzoyl)-6-(3-ethoxy-4-hydroxy-phenyl)-4-hydroxy-4-(trifluoromethyl)hexahydropyrimidin-2-one
@<TRIPOS>ATOM
      1 C1          4.7370    6.1036    5.2759 C.3       1 <0>        -0.1534
      2 C2          4.2365    5.0477    4.2882 C.3       1 <0>         0.0507
      3 O1          5.2812    4.7222    3.3690 O.3       1 <0>        -0.3026
      4 C3          4.9990    3.7922    2.4178 C.ar      1 <0>         0.1121
      5 C4          3.7443    3.2060    2.3704 C.ar      1 <0>        -0.1745
      6 C5          3.4589    2.2611    1.4025 C.ar      1 <0>        -0.0885
      7 C6          4.4249    1.8946    0.4839 C.ar      1 <0>        -0.1253
      8 C7          5.6768    2.4797    0.5220 C.ar      1 <0>        -0.0997
      9 C8          5.9694    3.4274    1.4896 C.ar      1 <0>         0.0903
     10 O2          7.2021    4.0002    1.5317 O.3       1 <0>        -0.4844
     11 C9          2.0938    1.6247    1.3525 C.3       1 <0>         0.2093
     12 H1          1.6319    1.6731    2.3386 H         1 <0>         0.1123
     13 C10         1.2187    2.3698    0.3394 C.3       1 <0>        -0.1320
     14 H2          1.0698    3.3074    0.6536 H         1 <0>         0.1259
     15 C11        -0.1218    1.6369    0.2201 C.3       1 <0>         0.3267
     16 N1          0.1254    0.2374   -0.1305 N.am      1 <0>        -0.7312
     17 C12         1.2533   -0.3862    0.2415 C.2       1 <0>         0.7416
     18 O3          1.4045   -1.5525   -0.0671 O.2       1 <0>        -0.5696
     19 N2          2.2210    0.2259    0.9401 N.am      1 <0>        -0.7224
     20 C13        -0.9693    2.2953   -0.8705 C.3       1 <0>         0.4223
     21 F1         -2.2389    1.7082   -0.8925 F         1 <0>        -0.1694
     22 F2         -1.0924    3.6630   -0.6034 F         1 <0>        -0.1605
     23 F3         -0.3512    2.1165   -2.1128 F         1 <0>        -0.1594
     24 O4         -0.8141    1.7014    1.4686 O.3       1 <0>        -0.5283
     25 C14         1.9048    2.3913   -1.0022 C.2       1 <0>         0.4000
     26 O5          2.1026    1.3542   -1.5988 O.2       1 <0>        -0.4041
     27 C15         2.3345    3.6702   -1.5881 C.ar      1 <0>        -0.1607
     28 C16         2.0019    4.8767   -0.9628 C.ar      1 <0>        -0.0610
     29 C17         2.4121    6.0710   -1.5149 C.ar      1 <0>        -0.1179
     30 C18         3.1427    6.0791   -2.6923 C.ar      1 <0>         0.0003
     31 C19         3.4716    4.8882   -3.3197 C.ar      1 <0>        -0.1195
     32 C20         3.0728    3.6861   -2.7763 C.ar      1 <0>        -0.0390
     33 Cl1         3.6489    7.5886   -3.3844 Cl        1 <0>        -0.0541
     34 H3          5.5939    5.7116    5.8237 H         1 <0>         0.0672
     35 H4          5.0334    6.9997    4.7306 H         1 <0>         0.0680
     36 H5          3.9402    6.3519    5.9770 H         1 <0>         0.0806
     37 H6          3.3796    5.4398    3.7404 H         1 <0>         0.0638
     38 H7          3.9401    4.1517    4.8335 H         1 <0>         0.0637
     39 H8          2.9894    3.4871    3.0899 H         1 <0>         0.1386
     40 H9          4.1995    1.1528   -0.2680 H         1 <0>         0.1345
     41 H10         6.4282    2.1948   -0.1995 H         1 <0>         0.1405
     42 H11         7.8372    3.5266    2.0863 H         1 <0>         0.3906
     43 H12        -0.5397   -0.2488   -0.6425 H         1 <0>         0.4227
     44 H13         3.0213   -0.2684    1.1770 H         1 <0>         0.4243
     45 H14        -1.6706    1.2525    1.4671 H         1 <0>         0.4010
     46 H15         1.4287    4.8720   -0.0475 H         1 <0>         0.1379
     47 H16         2.1593    7.0030   -1.0314 H         1 <0>         0.1435
     48 H17         4.0416    4.9020   -4.2369 H         1 <0>         0.1440
     49 H18         3.3298    2.7587   -3.2664 H         1 <0>         0.1454
@<TRIPOS>BOND
     1    1    2 1
     2    1   34 1
     3    1   35 1
     4    1   36 1
     5    2    3 1
     6    2   37 1
     7    2   38 1
     8    3    4 1
     9    4    9 ar
    10    4    5 ar
    11    5    6 ar
    12    5   39 1
    13    6    7 ar
    14    6   11 1
    15    7    8 ar
    16    7   40 1
    17    8    9 ar
    18    8   41 1
    19    9   10 1
    20   10   42 1
    21   11   12 1
    22   11   19 1
    23   11   13 1
    24   13   14 1
    25   13   15 1
    26   13   25 1
    27   15   16 1
    28   15   20 1
    29   15   24 1
    30   16   17 am
    31   16   43 1
    32   17   18 2
    33   17   19 am
    34   19   44 1
    35   20   21 1
    36   20   22 1
    37   20   23 1
    38   24   45 1
    39   25   26 2
    40   25   27 1
    41   27   32 ar
    42   27   28 ar
    43   28   29 ar
    44   28   46 1
    45   29   30 ar
    46   29   47 1
    47   30   31 ar
    48   30   33 1
    49   31   32 ar
    50   31   48 1
    51   32   49 1
@<TRIPOS>MOLECULE
ZINC20907525
   51    54     0     0     0
SMALL
USER_CHARGES
N-(2-chlorophenyl)-3-[[5-[(N'E)-N'-[(2-hydroxy-1-naphthyl)methylene]hydrazino]-4H-1,2,4-triazol-3-yl]sulfanyl]propanamide
@<TRIPOS>ATOM
      1 C1         -0.0065    1.0780   -0.0905 C.ar      1 <0>        -0.1353
      2 C2         -1.2283    1.7467   -0.0819 C.ar      1 <0>        -0.0876
      3 C3         -1.2807    3.1087   -0.0609 C.ar      1 <0>        -0.1328
      4 C4         -0.0910    3.8470   -0.0578 C.ar      1 <0>         0.0225
      5 C5          1.1533    3.1701   -0.0720 C.ar      1 <0>        -0.0953
      6 C6          1.1692    1.7648   -0.0884 C.ar      1 <0>        -0.0801
      7 C7          2.3463    3.9132   -0.0698 C.ar      1 <0>        -0.0301
      8 C8          2.3192    5.2728   -0.0534 C.ar      1 <0>        -0.1610
      9 C9          1.1206    5.9830   -0.0391 C.ar      1 <0>         0.2430
     10 C10        -0.1004    5.3083   -0.0408 C.ar      1 <0>        -0.1990
     11 C11        -1.3686    6.0508   -0.0262 C.2       1 <0>         0.1823
     12 N1         -1.3605    7.3512   -0.0112 N.2       1 <0>        -0.3128
     13 N2         -2.5695    8.0591    0.0027 N.pl3     1 <0>        -0.5490
     14 C12        -2.5609    9.4459    0.0188 C.2       1 <0>         0.5359
     15 N3         -3.6621   10.2563    0.0333 N.2       1 <0>        -0.5486
     16 C13        -3.2320   11.5528    0.0464 C.2       1 <0>         0.2252
     17 N4         -1.9203   11.5449    0.0402 N.2       1 <0>        -0.3140
     18 N5         -1.4954   10.2099    0.0284 N.pl3     1 <0>        -0.4783
     19 S1         -4.2589   12.9844    0.0678 S.3       1 <0>         0.0370
     20 C14        -3.0845   14.3669    0.0784 C.3       1 <0>        -0.1060
     21 C15        -3.8536   15.6894    0.0974 C.3       1 <0>        -0.1259
     22 C16        -2.8779   16.8378    0.1061 C.2       1 <0>         0.5259
     23 O1         -1.6847   16.6200    0.0980 O.2       1 <0>        -0.5153
     24 N6         -3.3311   18.1070    0.1230 N.am      1 <0>        -0.6844
     25 C17        -2.4278   19.1714    0.2258 C.ar      1 <0>         0.1610
     26 C18        -1.1800   19.0858   -0.3770 C.ar      1 <0>        -0.1133
     27 C19        -0.2931   20.1400   -0.2787 C.ar      1 <0>        -0.0956
     28 C20        -0.6419   21.2759    0.4289 C.ar      1 <0>        -0.1232
     29 C21        -1.8812   21.3629    1.0355 C.ar      1 <0>        -0.0926
     30 C22        -2.7758   20.3138    0.9362 C.ar      1 <0>        -0.0653
     31 Cl1        -4.3317   20.4231    1.6985 Cl        1 <0>        -0.0646
     32 O2          1.1411    7.3409   -0.0230 O.3       1 <0>        -0.5157
     33 H1          0.0085   -0.0019   -0.1036 H         1 <0>         0.1261
     34 H2         -2.1466    1.1784   -0.0884 H         1 <0>         0.1265
     35 H3         -2.2344    3.6154   -0.0498 H         1 <0>         0.1258
     36 H4          2.1089    1.2325   -0.0997 H         1 <0>         0.1313
     37 H5          3.2956    3.3984   -0.0805 H         1 <0>         0.1403
     38 H6          3.2521    5.8169   -0.0515 H         1 <0>         0.1385
     39 H7         -2.3246    5.5067   -0.0280 H         1 <0>         0.1410
     40 H8         -3.5255    7.5150    0.0008 H         1 <0>         0.4470
     41 H9         -2.4477   14.3002    0.9729 H         1 <0>         0.1035
     42 H10        -2.4561   14.3211   -0.8233 H         1 <0>         0.1036
     43 H11        -4.4904   15.7561   -0.7970 H         1 <0>         0.1130
     44 H12        -4.4819   15.7353    0.9991 H         1 <0>         0.1134
     45 H13        -4.4108   18.3064    0.0560 H         1 <0>         0.4387
     46 H14        -0.9047   18.1973   -0.9259 H         1 <0>         0.1481
     47 H15         0.6759   20.0754   -0.7513 H         1 <0>         0.1328
     48 H16         0.0556   22.0966    0.5082 H         1 <0>         0.1337
     49 H17        -2.1505   22.2511    1.5877 H         1 <0>         0.1372
     50 H18         0.1969    7.9051   -0.0117 H         1 <0>         0.4258
     51 H19        -0.4933    9.7562    0.0263 H         1 <0>         0.4668
@<TRIPOS>BOND
     1    1    6 ar
     2    1    2 ar
     3    1   33 1
     4    2    3 ar
     5    2   34 1
     6    3    4 ar
     7    3   35 1
     8    4   10 ar
     9    4    5 ar
    10    5    6 ar
    11    5    7 ar
    12    6   36 1
    13    7    8 ar
    14    7   37 1
    15    8    9 ar
    16    8   38 1
    17    9   10 ar
    18    9   32 1
    19   10   11 1
    20   11   12 2
    21   11   39 1
    22   12   13 1
    23   13   14 1
    24   13   40 1
    25   14   18 1
    26   14   15 2
    27   15   16 1
    28   16   17 2
    29   16   19 1
    30   17   18 1
    31   18   51 1
    32   19   20 1
    33   20   21 1
    34   20   41 1
    35   20   42 1
    36   21   22 1
    37   21   43 1
    38   21   44 1
    39   22   23 2
    40   22   24 am
    41   24   25 1
    42   24   45 1
    43   25   30 ar
    44   25   26 ar
    45   26   27 ar
    46   26   46 1
    47   27   28 ar
    48   27   47 1
    49   28   29 ar
    50   28   48 1
    51   29   30 ar
    52   29   49 1
    53   30   31 1
    54   32   50 1
@<TRIPOS>MOLECULE
ZINC39916017
   60    63     0     0     0
SMALL
USER_CHARGES

@<TRIPOS>ATOM
      1 C1         -0.7781    1.3092    0.3713 C.3       1 <0>        -0.1120
      2 C2         -0.6837   -0.1945    0.3371 C.ar      1 <0>        -0.1229
      3 C3         -0.6821   -0.8585   -0.8757 C.ar      1 <0>        -0.0804
      4 C4         -0.5960   -2.2368   -0.9097 C.ar      1 <0>        -0.1467
      5 C5         -0.5107   -2.9548    0.2743 C.ar      1 <0>         0.1228
      6 C6         -0.5121   -2.2861    1.4899 C.ar      1 <0>        -0.2048
      7 C7         -0.5931   -0.9073    1.5183 C.ar      1 <0>        -0.0807
      8 O1         -0.4264   -4.3108    0.2435 O.3       1 <0>        -0.3128
      9 C8         -0.3414   -4.9843    1.5010 C.3       1 <0>         0.0656
     10 C9         -0.2544   -6.4936    1.2663 C.3       1 <0>        -0.1380
     11 C10        -0.1634   -7.2147    2.6127 C.3       1 <0>         0.1143
     12 N1         -0.0801   -8.6600    2.3880 N.pl3     1 <0>        -0.4739
     13 C11        -1.1461   -9.5398    2.2941 C.ar      1 <0>         0.0584
     14 C12        -2.5227   -9.3933    2.3695 C.ar      1 <0>        -0.1132
     15 C13        -3.3395  -10.4969    2.2318 C.ar      1 <0>        -0.0970
     16 C14        -2.7925  -11.7535    2.0187 C.ar      1 <0>        -0.1282
     17 C15        -1.4276  -11.9175    1.9415 C.ar      1 <0>        -0.0577
     18 C16        -0.5867  -10.8100    2.0779 C.ar      1 <0>         0.0560
     19 N2          0.7627  -10.6538    2.0500 N.2       1 <0>        -0.4504
     20 C17         1.0632   -9.3904    2.2260 C.2       1 <0>         0.2580
     21 S1          2.6976   -8.7328    2.2548 S.3       1 <0>         0.0095
     22 C18         3.7578  -10.1801    1.9868 C.3       1 <0>         0.0792
     23 H1          3.4561  -10.6870    1.0702 H         1 <0>         0.1110
     24 C19         5.2158   -9.7294    1.8649 C.3       1 <0>         0.0618
     25 H2          5.5058   -9.1869    2.7647 H         1 <0>         0.0849
     26 C20         6.1108  -10.9615    1.6992 C.3       1 <0>         0.0855
     27 H3          7.1554  -10.6518    1.6679 H         1 <0>         0.0812
     28 C21         5.8906  -11.9024    2.8877 C.3       1 <0>         0.0895
     29 H4          6.1942  -11.4038    3.8081 H         1 <0>         0.0884
     30 C22         4.4065  -12.2692    2.9701 C.3       1 <0>         0.1019
     31 H5          4.2368  -12.9044    3.8394 H         1 <0>         0.1216
     32 O2          3.6284  -11.0768    3.0920 O.3       1 <0>        -0.3291
     33 C23         3.9952  -13.0195    1.7017 C.3       1 <0>         0.0495
     34 O3          2.6550  -13.4948    1.8430 O.3       1 <0>        -0.5603
     35 O4          6.6675  -13.0883    2.7082 O.3       1 <0>        -0.5413
     36 O5          5.7756  -11.6360    0.4848 O.3       1 <0>        -0.5406
     37 O6          5.3587   -8.8774    0.7267 O.3       1 <0>        -0.5495
     38 H6          0.2239    1.7370    0.3403 H         1 <0>         0.0690
     39 H7         -1.3485    1.6571   -0.4900 H         1 <0>         0.0661
     40 H8         -1.2782    1.6211    1.2882 H         1 <0>         0.0652
     41 H9         -0.7485   -0.2991   -1.7972 H         1 <0>         0.1300
     42 H10        -0.5955   -2.7551   -1.8573 H         1 <0>         0.1310
     43 H11        -0.4458   -2.8428    2.4130 H         1 <0>         0.1268
     44 H12        -0.5897   -0.3860    2.4642 H         1 <0>         0.1250
     45 H13         0.5477   -4.6476    2.0341 H         1 <0>         0.0674
     46 H14        -1.2278   -4.7593    2.0943 H         1 <0>         0.0664
     47 H15        -1.1435   -6.8303    0.7332 H         1 <0>         0.0845
     48 H16         0.6319   -6.7186    0.6731 H         1 <0>         0.0854
     49 H17         0.7257   -6.8780    3.1458 H         1 <0>         0.0982
     50 H18        -1.0497   -6.9897    3.2059 H         1 <0>         0.0990
     51 H19        -2.9548   -8.4176    2.5360 H         1 <0>         0.1210
     52 H20        -4.4117  -10.3814    2.2907 H         1 <0>         0.1312
     53 H21        -3.4420  -12.6098    1.9128 H         1 <0>         0.1311
     54 H22        -1.0083  -12.8990    1.7760 H         1 <0>         0.1316
     55 H23         4.0537  -12.3465    0.8463 H         1 <0>         0.0762
     56 H24         4.6658  -13.8645    1.5458 H         1 <0>         0.0610
     57 H25         2.3271  -13.9813    1.0743 H         1 <0>         0.3742
     58 H26         7.6191  -12.9290    2.6435 H         1 <0>         0.3849
     59 H27         5.8861  -11.0949   -0.3090 H         1 <0>         0.3854
     60 H28         4.8155   -8.0781    0.7630 H         1 <0>         0.3897
@<TRIPOS>BOND
     1    1    2 1
     2    1   38 1
     3    1   39 1
     4    1   40 1
     5    2    7 ar
     6    2    3 ar
     7    3    4 ar
     8    3   41 1
     9    4    5 ar
    10    4   42 1
    11    5    6 ar
    12    5    8 1
    13    6    7 ar
    14    6   43 1
    15    7   44 1
    16    8    9 1
    17    9   10 1
    18    9   45 1
    19    9   46 1
    20   10   11 1
    21   10   47 1
    22   10   48 1
    23   11   12 1
    24   11   49 1
    25   11   50 1
    26   12   20 1
    27   12   13 1
    28   13   18 ar
    29   13   14 ar
    30   14   15 ar
    31   14   51 1
    32   15   16 ar
    33   15   52 1
    34   16   17 ar
    35   16   53 1
    36   17   18 ar
    37   17   54 1
    38   18   19 1
    39   19   20 2
    40   20   21 1
    41   21   22 1
    42   22   23 1
    43   22   32 1
    44   22   24 1
    45   24   25 1
    46   24   26 1
    47   24   37 1
    48   26   27 1
    49   26   28 1
    50   26   36 1
    51   28   29 1
    52   28   30 1
    53   28   35 1
    54   30   31 1
    55   30   32 1
    56   30   33 1
    57   33   34 1
    58   33   55 1
    59   33   56 1
    60   34   57 1
    61   35   58 1
    62   36   59 1
    63   37   60 1
@<TRIPOS>MOLECULE
ZINC44681461
   69    72     0     0     0
SMALL
USER_CHARGES

@<TRIPOS>ATOM
      1 C1          0.5370    1.9077   -0.9006 C.3       1 <0>        -0.1618
      2 C2          0.4014    0.3789   -0.9711 C.3       1 <0>        -0.0359
      3 C3         -1.0643    0.0302   -1.2007 C.3       1 <0>        -0.1029
      4 C4         -1.9016    0.6044   -0.0568 C.3       1 <0>        -0.1497
      5 C5         -1.4579    0.0715    1.2928 C.3       1 <0>         0.1281
      6 H1         -1.9428    0.6908    2.0735 H         1 <0>         0.0511
      7 C6          0.0408    0.1167    1.5381 C.3       1 <0>        -0.0333
      8 C7          0.8738   -0.2800    0.3201 C.3       1 <0>        -0.0439
      9 H2          1.9279   -0.0009    0.4990 H         1 <0>         0.0784
     10 C8          0.7928   -1.8151    0.2029 C.3       1 <0>        -0.0326
     11 C9          1.1164   -2.2859   -1.1686 C.2       1 <0>        -0.2423
     12 C10         1.3200   -1.5368   -2.2794 C.2       1 <0>         0.1168
     13 N1          1.5678   -2.2233   -3.3894 N.2       1 <0>        -0.5294
     14 C11         1.6307   -3.5380   -3.3890 C.2       1 <0>         0.2915
     15 S1          1.3361   -3.9357   -1.7779 S.3       1 <0>         0.1014
     16 N2          1.8796   -4.3891   -4.4553 N.pl3     1 <0>        -0.6217
     17 C12         2.0411   -5.7592   -4.2327 C.ar      1 <0>         0.1851
     18 C13         2.6873   -6.2066   -3.0864 C.ar      1 <0>        -0.1675
     19 C14         2.8463   -7.5607   -2.8664 C.ar      1 <0>        -0.0651
     20 C15         2.3639   -8.4742   -3.7847 C.ar      1 <0>        -0.1653
     21 C16         1.7179   -8.0334   -4.9311 C.ar      1 <0>         0.1384
     22 C17         1.5514   -6.6754   -5.1532 C.ar      1 <0>        -0.1746
     23 O1          1.2445   -8.9329   -5.8331 O.3       1 <0>        -0.4967
     24 C18         1.2792   -0.0273   -2.1585 C.3       1 <0>         0.0165
     25 H3          2.2963    0.3403   -1.9688 H         1 <0>         0.0909
     26 C19         0.7665    0.6006   -3.4508 C.3       1 <0>        -0.1283
     27 C20         1.7181    0.2833   -4.5755 C.2       1 <0>         0.5175
     28 O2          2.7099   -0.3811   -4.3614 O.2       1 <0>        -0.4985
     29 N3          1.4670    0.7378   -5.8192 N.am      1 <0>        -0.6232
     30 C21         0.2690    1.5404   -6.0778 C.3       1 <0>         0.0800
     31 C22         2.3921    0.4294   -6.9125 C.3       1 <0>         0.1456
     32 C23         1.9776   -0.8605   -7.5724 C.2       1 <0>        -0.1609
     33 C24         1.7579   -0.8947   -8.8634 C.2       1 <0>        -0.1867
     34 C25         0.4472    1.4884    2.0923 C.3       1 <0>        -0.1484
     35 C26         0.3433   -0.8887    2.6809 C.3       1 <0>         0.0811
     36 O3         -0.3728   -0.5037    3.8561 O.3       1 <0>        -0.5691
     37 O4         -1.9467   -1.2630    1.4708 O.3       1 <0>        -0.5634
     38 H4          1.5594    2.1696   -0.6282 H         1 <0>         0.0592
     39 H5          0.2983    2.3388   -1.8728 H         1 <0>         0.0621
     40 H6         -0.1504    2.2992   -0.1508 H         1 <0>         0.0705
     41 H7         -1.4234    0.4552   -2.1381 H         1 <0>         0.0624
     42 H8         -1.1859   -1.0537   -1.2317 H         1 <0>         0.0711
     43 H9         -1.8826    1.6916   -0.0667 H         1 <0>         0.0746
     44 H10        -2.9500    0.3039   -0.2228 H         1 <0>         0.0613
     45 H11         1.5194   -2.2698    0.8869 H         1 <0>         0.0701
     46 H12        -0.2085   -2.1629    0.4561 H         1 <0>         0.1022
     47 H13         1.9416   -4.0334   -5.3556 H         1 <0>         0.4207
     48 H14         3.0655   -5.4949   -2.3674 H         1 <0>         0.1323
     49 H15         3.3490   -7.9065   -1.9752 H         1 <0>         0.1353
     50 H16         2.4902   -9.5325   -3.6099 H         1 <0>         0.1334
     51 H17         1.0450   -6.3307   -6.0427 H         1 <0>         0.1335
     52 H18         0.3346   -9.2149   -5.6670 H         1 <0>         0.3947
     53 H19        -0.2191    0.1979   -3.6844 H         1 <0>         0.0915
     54 H20         0.6975    1.6813   -3.3273 H         1 <0>         0.0975
     55 H21         0.5011    2.5959   -5.9358 H         1 <0>         0.0551
     56 H22        -0.0640    1.3763   -7.1026 H         1 <0>         0.0687
     57 H23        -0.5215    1.2461   -5.3874 H         1 <0>         0.0693
     58 H24         2.3703    1.2359   -7.6454 H         1 <0>         0.0768
     59 H25         3.4021    0.3263   -6.5157 H         1 <0>         0.0897
     60 H26         1.8618   -1.7567   -6.9810 H         1 <0>         0.1066
     61 H27         1.8737    0.0016   -9.4548 H         1 <0>         0.0969
     62 H28         1.4608   -1.8190   -9.3363 H         1 <0>         0.0975
     63 H29         0.0539    1.6033    3.1024 H         1 <0>         0.0721
     64 H30         1.5344    1.5635    2.1150 H         1 <0>         0.0595
     65 H31         0.0421    2.2730    1.4533 H         1 <0>         0.0618
     66 H32         0.0325   -1.8883    2.3772 H         1 <0>         0.0627
     67 H33         1.4129   -0.8889    2.8910 H         1 <0>         0.0385
     68 H34        -0.2307   -1.0890    4.6127 H         1 <0>         0.3774
     69 H35        -2.9104   -1.3362    1.4408 H         1 <0>         0.3743
@<TRIPOS>BOND
     1    1    2 1
     2    1   38 1
     3    1   39 1
     4    1   40 1
     5    2    8 1
     6    2   24 1
     7    2    3 1
     8    3    4 1
     9    3   41 1
    10    3   42 1
    11    4    5 1
    12    4   43 1
    13    4   44 1
    14    5    6 1
    15    5    7 1
    16    5   37 1
    17    7    8 1
    18    7   34 1
    19    7   35 1
    20    8    9 1
    21    8   10 1
    22   10   11 1
    23   10   45 1
    24   10   46 1
    25   11   15 1
    26   11   12 2
    27   12   13 1
    28   12   24 1
    29   13   14 2
    30   14   15 1
    31   14   16 1
    32   16   17 1
    33   16   47 1
    34   17   22 ar
    35   17   18 ar
    36   18   19 ar
    37   18   48 1
    38   19   20 ar
    39   19   49 1
    40   20   21 ar
    41   20   50 1
    42   21   22 ar
    43   21   23 1
    44   22   51 1
    45   23   52 1
    46   24   25 1
    47   24   26 1
    48   26   27 1
    49   26   53 1
    50   26   54 1
    51   27   28 2
    52   27   29 am
    53   29   30 1
    54   29   31 1
    55   30   55 1
    56   30   56 1
    57   30   57 1
    58   31   32 1
    59   31   58 1
    60   31   59 1
    61   32   33 2
    62   32   60 1
    63   33   61 1
    64   33   62 1
    65   34   63 1
    66   34   64 1
    67   34   65 1
    68   35   36 1
    69   35   66 1
    70   35   67 1
    71   36   68 1
    72   37   69 1
@<TRIPOS>MOLECULE
ZINC59018585
   45    47     0     0     0
SMALL
USER_CHARGES

@<TRIPOS>ATOM
      1 C1         -0.0632    1.5020    0.0159 C.3       1 <0>        -0.1142
      2 C2         -0.0306   -0.0047    0.0058 C.ar      1 <0>        -0.0963
      3 C3         -0.6216   -0.7006   -1.0329 C.ar      1 <0>        -0.0811
      4 C4         -0.5942   -2.0814   -1.0453 C.ar      1 <0>        -0.1203
      5 C5          0.0281   -2.7714   -0.0133 C.ar      1 <0>         0.1716
      6 C6          0.6214   -2.0697    1.0287 C.ar      1 <0>        -0.1207
      7 C7          0.5948   -0.6879    1.0322 C.ar      1 <0>        -0.0705
      8 Br1         1.4697   -3.0039    2.4371 Br        1 <0>        -0.0446
      9 N1          0.0572   -4.1707   -0.0227 N.am      1 <0>        -0.6635
     10 C8         -0.0419   -4.8390   -1.1889 C.2       1 <0>         0.5400
     11 O1         -0.0553   -4.2298   -2.2377 O.2       1 <0>        -0.4933
     12 C9         -0.1360   -6.3430   -1.1899 C.3       1 <0>        -0.1661
     13 S1         -0.2572   -6.9402   -2.8985 S.3       1 <0>         0.1206
     14 C10        -0.3585   -8.6914   -2.7318 C.2       1 <0>         0.2148
     15 N2         -0.4572   -9.5634   -3.7408 N.2       1 <0>        -0.5118
     16 C11        -0.5122  -10.7891   -3.2630 C.2       1 <0>         0.5613
     17 N3         -0.4481  -10.7148   -1.9165 N.pl3     1 <0>        -0.5034
     18 N4         -0.3437   -9.3512   -1.5981 N.2       1 <0>        -0.3228
     19 N5         -0.6176  -11.9484   -4.0090 N.pl3     1 <0>        -0.5512
     20 N6         -0.6750  -11.8789   -5.4071 N.2       1 <0>        -0.1706
     21 C12        -0.7739  -12.9675   -6.1077 C.2       1 <0>         0.0957
     22 C13        -0.8343  -12.8944   -7.5785 C.ar      1 <0>        -0.0707
     23 C14        -0.9465  -14.0628   -8.3355 C.ar      1 <0>        -0.0667
     24 C15        -1.0031  -13.9871   -9.7124 C.ar      1 <0>        -0.0515
     25 C16        -0.9489  -12.7566  -10.3466 C.ar      1 <0>        -0.0761
     26 C17        -0.8378  -11.5938   -9.6074 C.ar      1 <0>        -0.1388
     27 C18        -0.7852  -11.6519   -8.2247 C.ar      1 <0>         0.1552
     28 O2         -0.6813  -10.5089   -7.4977 O.3       1 <0>        -0.4673
     29 Cl1        -1.1420  -15.4394  -10.6533 Cl        1 <0>        -0.0612
     30 H1          0.8129    1.8878   -0.5054 H         1 <0>         0.0739
     31 H2         -0.9665    1.8492   -0.4857 H         1 <0>         0.0706
     32 H3         -0.0595    1.8586    1.0458 H         1 <0>         0.0688
     33 H4         -1.1055   -0.1637   -1.8354 H         1 <0>         0.1351
     34 H5         -1.0565   -2.6240   -1.8565 H         1 <0>         0.1564
     35 H6          1.0595   -0.1414    1.8396 H         1 <0>         0.1372
     36 H7          0.1486   -4.6595    0.8101 H         1 <0>         0.4161
     37 H8          0.7536   -6.7630   -0.7205 H         1 <0>         0.1275
     38 H9         -1.0208   -6.6521   -0.6333 H         1 <0>         0.1285
     39 H10        -0.6517  -12.8098   -3.5644 H         1 <0>         0.3991
     40 H11        -0.8119  -13.9266   -5.6127 H         1 <0>         0.1253
     41 H12        -0.9887  -15.0237   -7.8443 H         1 <0>         0.1427
     42 H13        -0.9934  -12.7055  -11.4245 H         1 <0>         0.1412
     43 H14        -0.7962  -10.6382  -10.1088 H         1 <0>         0.1447
     44 H15         0.2296  -10.2332   -7.3265 H         1 <0>         0.3974
     45 H16        -0.4666  -11.4571   -1.2924 H         1 <0>         0.4389
@<TRIPOS>BOND
     1    1    2 1
     2    1   30 1
     3    1   31 1
     4    1   32 1
     5    2    7 ar
     6    2    3 ar
     7    3    4 ar
     8    3   33 1
     9    4    5 ar
    10    4   34 1
    11    5    6 ar
    12    5    9 1
    13    6    7 ar
    14    6    8 1
    15    7   35 1
    16    9   10 am
    17    9   36 1
    18   10   11 2
    19   10   12 1
    20   12   13 1
    21   12   37 1
    22   12   38 1
    23   13   14 1
    24   14   18 2
    25   14   15 1
    26   15   16 2
    27   16   17 1
    28   16   19 1
    29   17   18 1
    30   17   45 1
    31   19   20 1
    32   19   39 1
    33   20   21 2
    34   21   22 1
    35   21   40 1
    36   22   27 ar
    37   22   23 ar
    38   23   24 ar
    39   23   41 1
    40   24   25 ar
    41   24   29 1
    42   25   26 ar
    43   25   42 1
    44   26   27 ar
    45   26   43 1
    46   27   28 1
    47   28   44 1
@<TRIPOS>MOLECULE
ZINC06182951
   65    66     0     0     0
SMALL
USER_CHARGES
1-[2-chloro-4-[3-chloro-4-(3-dimethylamino-2-hydroxy-propoxy)-phenyl]sulfonyl-phenoxy]-3-dimethylamino-propan-2-ol
@<TRIPOS>ATOM
      1 C1         -8.1293   -0.9303   -7.3694 C.3       1 <0>        -0.0433
      2 C2         -8.0768    1.3434   -6.5386 C.3       1 <0>        -0.0484
      3 C3         -6.3457   -0.2216   -5.8932 C.3       1 <0>        -0.0398
      4 C4         -5.2269    0.8140   -5.7630 C.3       1 <0>         0.0846
      5 H1         -5.6593    1.7903   -5.5440 H         1 <0>         0.1356
      6 C5         -4.2850    0.4071   -4.6280 C.3       1 <0>         0.0222
      7 O1         -3.3083    1.4312   -4.4294 O.3       1 <0>        -0.2834
      8 C6         -2.3884    1.2249   -3.4502 C.ar      1 <0>         0.1888
      9 C7         -2.4247    0.0610   -2.6967 C.ar      1 <0>        -0.2164
     10 C8         -1.4850   -0.1492   -1.7061 C.ar      1 <0>         0.0267
     11 C9         -0.5151    0.8045   -1.4575 C.ar      1 <0>        -0.6827
     12 C10        -0.4759    1.9658   -2.2065 C.ar      1 <0>         0.0275
     13 C11        -1.4105    2.1786   -3.2029 C.ar      1 <0>        -0.0858
     14 Cl1        -1.3609    3.6367   -4.1438 Cl        1 <0>        -0.0314
     15 S1          0.6773    0.5360   -0.1884 S.o2      1 <0>         2.5880
     16 O2          0.7581   -0.8698    0.0021 O.2       1 <0>        -0.9204
     17 O3          1.8105    1.3259   -0.5220 O.2       1 <0>        -0.9204
     18 C12         0.0151    1.2086    1.2995 C.ar      1 <0>        -0.6827
     19 C13         0.2667    2.5268    1.6329 C.ar      1 <0>         0.0266
     20 C14        -0.2559    3.0586    2.7960 C.ar      1 <0>        -0.2164
     21 C15        -1.0244    2.2660    3.6358 C.ar      1 <0>         0.1888
     22 C16        -1.2711    0.9414    3.3022 C.ar      1 <0>        -0.0858
     23 C17        -0.7504    0.4158    2.1342 C.ar      1 <0>         0.0275
     24 Cl2        -2.2318   -0.0544    4.3506 Cl        1 <0>        -0.0314
     25 O4         -1.5345    2.7855    4.7836 O.3       1 <0>        -0.2834
     26 C18        -1.2400    4.1556    5.0628 C.3       1 <0>         0.0223
     27 C19        -1.8940    4.5586    6.3859 C.3       1 <0>         0.0846
     28 H2         -2.9617    4.3434    6.3438 H         1 <0>         0.1356
     29 C20        -1.6844    6.0554    6.6234 C.3       1 <0>        -0.0397
     30 C21        -1.8671    7.7618    8.3315 C.3       1 <0>        -0.0433
     31 C22        -3.8060    6.4453    7.7232 C.3       1 <0>        -0.0484
     32 O5         -1.3008    3.8190    7.4551 O.3       1 <0>        -0.5410
     33 O6         -4.4950    0.8812   -6.9885 O.3       1 <0>        -0.5410
     34 H3         -8.7338   -1.2553   -6.5226 H         1 <0>         0.1247
     35 H4         -8.7829   -0.6078   -8.1799 H         1 <0>         0.1273
     36 H5         -7.5079   -1.7580   -7.7112 H         1 <0>         0.1231
     37 H6         -7.4186    2.1805   -6.3059 H         1 <0>         0.1215
     38 H7         -8.7533    1.6264   -7.3450 H         1 <0>         0.1280
     39 H8         -8.6564    1.0801   -5.6537 H         1 <0>         0.1249
     40 H9         -5.9154   -1.1922   -6.1401 H         1 <0>         0.1389
     41 H10        -6.8862   -0.2932   -4.9494 H         1 <0>         0.1458
     42 H11        -3.7852   -0.5262   -4.8876 H         1 <0>         0.0857
     43 H12        -4.8586    0.2694   -3.7115 H         1 <0>         0.0885
     44 H13        -3.1845   -0.6826   -2.8873 H         1 <0>         0.1475
     45 H14        -1.5105   -1.0575   -1.1223 H         1 <0>         0.1570
     46 H15         0.2855    2.7070   -2.0136 H         1 <0>         0.1634
     47 H16         0.8687    3.1425    0.9811 H         1 <0>         0.1570
     48 H17        -0.0625    4.0895    3.0533 H         1 <0>         0.1475
     49 H18        -0.9415   -0.6148    1.8740 H         1 <0>         0.1634
     50 H19        -0.1605    4.2876    5.1360 H         1 <0>         0.0857
     51 H20        -1.6289    4.7818    4.2597 H         1 <0>         0.0884
     52 H21        -0.6173    6.2662    6.6937 H         1 <0>         0.1389
     53 H22        -2.1121    6.6183    5.7938 H         1 <0>         0.1458
     54 H23        -2.1112    8.5174    7.5848 H         1 <0>         0.1247
     55 H24        -2.3487    8.0153    9.2759 H         1 <0>         0.1273
     56 H25        -0.7868    7.7261    8.4727 H         1 <0>         0.1231
     57 H26        -4.1401    5.4438    7.4523 H         1 <0>         0.1215
     58 H27        -4.2699    6.7410    8.6642 H         1 <0>         0.1280
     59 H28        -4.0922    7.1479    6.9405 H         1 <0>         0.1249
     60 H29        -0.3494    3.9621    7.5519 H         1 <0>         0.3925
     61 H30        -4.0819    0.0457   -7.2462 H         1 <0>         0.3925
     62 N1         -7.2556    0.1966   -6.9804 N.4       1 <0>        -0.3938
     63 H31        -6.6959    0.4806   -7.7930 H         1 <0>         0.4381
     64 N2         -2.3380    6.4305    7.8950 N.4       1 <0>        -0.3938
     65 H32        -2.0932    5.7383    8.6127 H         1 <0>         0.4381
@<TRIPOS>BOND
     1    1   34 1
     2    1   35 1
     3    1   36 1
     4    1   62 1
     5    2   37 1
     6    2   38 1
     7    2   39 1
     8    2   62 1
     9    3    4 1
    10    3   40 1
    11    3   41 1
    12    3   62 1
    13    4    5 1
    14    4    6 1
    15    4   33 1
    16    6    7 1
    17    6   42 1
    18    6   43 1
    19    7    8 1
    20    8   13 ar
    21    8    9 ar
    22    9   10 ar
    23    9   44 1
    24   10   11 ar
    25   10   45 1
    26   11   12 ar
    27   11   15 1
    28   12   13 ar
    29   12   46 1
    30   13   14 1
    31   15   16 2
    32   15   17 2
    33   15   18 1
    34   18   23 ar
    35   18   19 ar
    36   19   20 ar
    37   19   47 1
    38   20   21 ar
    39   20   48 1
    40   21   22 ar
    41   21   25 1
    42   22   23 ar
    43   22   24 1
    44   23   49 1
    45   25   26 1
    46   26   27 1
    47   26   50 1
    48   26   51 1
    49   27   28 1
    50   27   29 1
    51   27   32 1
    52   29   52 1
    53   29   53 1
    54   29   64 1
    55   30   54 1
    56   30   55 1
    57   30   56 1
    58   30   64 1
    59   31   57 1
    60   31   58 1
    61   31   59 1
    62   31   64 1
    63   32   60 1
    64   33   61 1
    65   62   63 1
    66   64   65 1
@<TRIPOS>MOLECULE
ZINC13573936
   76    80     0     0     0
SMALL
USER_CHARGES

@<TRIPOS>ATOM
      1 C1          4.9707   -1.0430   -0.8627 C.3       1 <0>        -0.1894
      2 C2          4.6052   -2.5037   -0.5912 C.3       1 <0>        -0.0109
      3 N1          4.7975   -2.7997    0.8348 N.4       1 <0>        -0.3842
      4 C3          3.8579   -1.9993    1.6301 C.3       1 <0>        -0.0266
      5 C4          4.1344   -2.2206    3.1208 C.3       1 <0>         0.1018
      6 N2          4.0846   -3.6651    3.3948 N.pl3     1 <0>        -0.6245
      7 C5          4.8734   -4.5613    2.5353 C.3       1 <0>         0.1035
      8 C6          4.5620   -4.2295    1.0722 C.3       1 <0>        -0.0213
      9 C7          3.3152   -4.1681    4.4343 C.ar      1 <0>         0.4243
     10 C8          2.7589   -3.2800    5.3662 C.ar      1 <0>        -0.2216
     11 C9          2.0009   -3.7595    6.3914 C.ar      1 <0>         0.0226
     12 C10         1.8002   -5.1527    6.4798 C.ar      1 <0>        -0.1178
     13 C11         1.0299   -5.7113    7.5107 C.ar      1 <0>        -0.0998
     14 C12         0.8560   -7.0771    7.5636 C.ar      1 <0>         0.1467
     15 C13         1.4407   -7.9062    6.6004 C.ar      1 <0>        -0.0649
     16 C14         2.1912   -7.3865    5.5925 C.ar      1 <0>        -0.0902
     17 C15         2.3890   -5.9974    5.5076 C.ar      1 <0>         0.1802
     18 N3          3.1201   -5.4675    4.5193 N.ar      1 <0>        -0.5378
     19 N4          0.0884   -7.6398    8.5899 N.pl3     1 <0>        -0.6491
     20 C16        -0.6623   -8.7575    8.3484 C.cat     1 <0>         0.5253
     21 N5         -0.9935   -9.5937    9.3774 N.pl3     1 <0>        -0.6943
     22 C17        -1.7974  -10.7907    9.1188 C.3       1 <0>         0.1296
     23 C18        -2.0239  -11.5461   10.4299 C.3       1 <0>        -0.1672
     24 C19        -2.8635  -12.7962   10.1598 C.3       1 <0>        -0.0034
     25 N6         -3.0809  -13.5215   11.4187 N.4       1 <0>        -0.3831
     26 C20        -3.7945  -14.7783   11.1457 C.3       1 <0>        -0.0025
     27 C21        -3.7400  -15.6524   12.3994 C.3       1 <0>        -0.1061
     28 C22        -4.1905  -14.8552   13.5968 C.ar      1 <0>        -0.0914
     29 C23        -4.5443  -15.5338   14.7525 C.ar      1 <0>        -0.1039
     30 C24        -4.9588  -14.8373   15.8701 C.ar      1 <0>        -0.0900
     31 C25        -5.0208  -13.4565   15.8361 C.ar      1 <0>        -0.1044
     32 C26        -4.6699  -12.7801   14.6852 C.ar      1 <0>        -0.0938
     33 C27        -4.2549  -13.4785   13.5609 C.ar      1 <0>        -0.1377
     34 C28        -3.8897  -12.7005   12.3243 C.3       1 <0>         0.0451
     35 S1         -1.1711   -9.0982    6.8055 S.3       1 <0>        -0.5178
     36 C29         1.3928   -2.8253    7.4056 C.3       1 <0>        -0.1278
     37 H1          6.0133   -0.8733   -0.5938 H         1 <0>         0.0816
     38 H2          4.8280   -0.8234   -1.9207 H         1 <0>         0.1080
     39 H3          4.3312   -0.3917   -0.2669 H         1 <0>         0.0800
     40 H4          3.5626   -2.6734   -0.8601 H         1 <0>         0.1286
     41 H5          5.2447   -3.1550   -1.1869 H         1 <0>         0.1325
     42 H6          3.9855   -0.9438    1.3896 H         1 <0>         0.1451
     43 H7          2.8366   -2.3035    1.4007 H         1 <0>         0.1331
     44 H8          5.1222   -1.8341    3.3715 H         1 <0>         0.0947
     45 H9          3.3763   -1.7090    3.7139 H         1 <0>         0.1277
     46 H10         5.9359   -4.4111    2.7268 H         1 <0>         0.0879
     47 H11         4.6040   -5.5972    2.7413 H         1 <0>         0.1395
     48 H12         3.5195   -4.4663    0.8597 H         1 <0>         0.1324
     49 H13         5.2085   -4.8174    0.4206 H         1 <0>         0.1420
     50 H14         2.9313   -2.2181    5.2714 H         1 <0>         0.1377
     51 H15         0.5769   -5.0758    8.2572 H         1 <0>         0.1361
     52 H16         1.2942   -8.9747    6.6582 H         1 <0>         0.1386
     53 H17         2.6354   -8.0411    4.8572 H         1 <0>         0.1416
     54 H18         0.0887   -7.2371    9.4724 H         1 <0>         0.4096
     55 H19        -2.7591  -10.4984    8.6971 H         1 <0>         0.0978
     56 H20        -1.2726  -11.4356    8.4139 H         1 <0>         0.0992
     57 H21        -1.0622  -11.8384   10.8516 H         1 <0>         0.0965
     58 H22        -2.5487  -10.9012   11.1348 H         1 <0>         0.0951
     59 H23        -3.8252  -12.5039    9.7382 H         1 <0>         0.1389
     60 H24        -2.3387  -13.4411    9.4550 H         1 <0>         0.1417
     61 H25        -4.8331  -14.5625   10.8950 H         1 <0>         0.1346
     62 H26        -3.3155  -15.2983   10.3161 H         1 <0>         0.1398
     63 H27        -4.3957  -16.5134   12.2697 H         1 <0>         0.1253
     64 H28        -2.7179  -15.9967   12.5570 H         1 <0>         0.1039
     65 H29        -4.4958  -16.6124   14.7787 H         1 <0>         0.1362
     66 H30        -5.2343  -15.3696   16.7685 H         1 <0>         0.1382
     67 H31        -5.3436  -12.9079   16.7086 H         1 <0>         0.1380
     68 H32        -4.7191  -11.7015   14.6598 H         1 <0>         0.1330
     69 H33        -3.3215  -11.8156   12.6113 H         1 <0>         0.1353
     70 H34        -4.8007  -12.3912   11.8120 H         1 <0>         0.1385
     71 H35         0.4041   -2.5154    7.0672 H         1 <0>         0.0875
     72 H36         1.3050   -3.3369    8.3641 H         1 <0>         0.0776
     73 H37         2.0296   -1.9479    7.5191 H         1 <0>         0.0803
     74 H38        -0.6962   -9.3946   10.2790 H         1 <0>         0.3996
     75 H39         5.7426   -2.5670    1.1008 H         1 <0>         0.4227
     76 H40        -2.1913  -13.7235   11.8499 H         1 <0>         0.4263
@<TRIPOS>BOND
     1    1    2 1
     2    1   37 1
     3    1   38 1
     4    1   39 1
     5    2    3 1
     6    2   40 1
     7    2   41 1
     8    3    8 1
     9    3    4 1
    10    3   75 1
    11    4    5 1
    12    4   42 1
    13    4   43 1
    14    5    6 1
    15    5   44 1
    16    5   45 1
    17    6    7 1
    18    6    9 1
    19    7    8 1
    20    7   46 1
    21    7   47 1
    22    8   48 1
    23    8   49 1
    24    9   18 ar
    25    9   10 ar
    26   10   11 ar
    27   10   50 1
    28   11   12 ar
    29   11   36 1
    30   12   17 ar
    31   12   13 ar
    32   13   14 ar
    33   13   51 1
    34   14   15 ar
    35   14   19 1
    36   15   16 ar
    37   15   52 1
    38   16   17 ar
    39   16   53 1
    40   17   18 ar
    41   19   20 1
    42   19   54 1
    43   20   21 2
    44   20   35 1
    45   21   22 1
    46   21   74 1
    47   22   23 1
    48   22   55 1
    49   22   56 1
    50   23   24 1
    51   23   57 1
    52   23   58 1
    53   24   25 1
    54   24   59 1
    55   24   60 1
    56   25   34 1
    57   25   26 1
    58   25   76 1
    59   26   27 1
    60   26   61 1
    61   26   62 1
    62   27   28 1
    63   27   63 1
    64   27   64 1
    65   28   33 ar
    66   28   29 ar
    67   29   30 ar
    68   29   65 1
    69   30   31 ar
    70   30   66 1
    71   31   32 ar
    72   31   67 1
    73   32   33 ar
    74   32   68 1
    75   33   34 1
    76   34   69 1
    77   34   70 1
    78   36   71 1
    79   36   72 1
    80   36   73 1
@<TRIPOS>MOLECULE
ZINC39674769
   74    78     0     0     0
SMALL
USER_CHARGES

@<TRIPOS>ATOM
      1 C1         -2.7142    0.7437   -2.7464 C.3       1 <0>        -0.1390
      2 C2         -2.0178   -0.4417   -2.0751 C.3       1 <0>        -0.1201
      3 S1         -0.5174   -0.8658   -3.0023 S.3       1 <0>        -0.0184
      4 C3          0.1606   -2.2291   -2.1156 C.ar      1 <0>         0.1700
      5 C4          1.3559   -2.8253   -2.5559 C.ar      1 <0>        -0.1793
      6 C5          1.8748   -3.9063   -1.8347 C.ar      1 <0>        -0.0286
      7 C6          1.1862   -4.3421   -0.7163 C.ar      1 <0>        -0.1894
      8 C7          0.0158   -3.7044   -0.3449 C.ar      1 <0>         0.1506
      9 N1         -0.4551   -2.6839   -1.0343 N.ar      1 <0>        -0.4919
     10 C8          2.0488   -2.3210   -3.7550 C.2       1 <0>         0.5983
     11 O1          2.0459   -1.1306   -4.0035 O.2       1 <0>        -0.4979
     12 N2          2.6857   -3.1793   -4.5762 N.am      1 <0>        -0.6155
     13 C9          2.7109   -4.6590   -4.5007 C.3       1 <0>         0.1090
     14 C10         2.6256   -5.1264   -5.9709 C.3       1 <0>        -0.1130
     15 H1          3.2497   -6.0064   -6.1263 H         1 <0>         0.1211
     16 C11         3.1590   -3.9400   -6.7914 C.3       1 <0>        -0.0733
     17 C12         3.5139   -2.8564   -5.7628 C.3       1 <0>         0.1064
     18 C13         4.4014   -4.3546   -7.5738 C.3       1 <0>        -0.1324
     19 C14         4.8790   -3.1755   -8.4262 C.3       1 <0>        -0.0121
     20 N3          3.8099   -2.7696   -9.3464 N.4       1 <0>        -0.5043
     21 C15         2.6519   -2.2848   -8.5856 C.3       1 <0>        -0.0108
     22 C16         2.0800   -3.4262   -7.7399 C.3       1 <0>        -0.1451
     23 C17         1.1965   -5.4254   -6.3444 C.2       1 <0>         0.5191
     24 O2          0.2909   -4.8215   -5.8094 O.2       1 <0>        -0.5024
     25 N4          0.9248   -6.3638   -7.2728 N.am      1 <0>        -0.7352
     26 C18        -0.4644   -6.6545   -7.6358 C.3       1 <0>         0.0986
     27 C19        -0.4940   -7.7502   -8.7032 C.3       1 <0>        -0.1041
     28 C20        -1.9231   -8.0492   -9.0767 C.2       1 <0>         0.0776
     29 C21        -3.0383   -7.4592   -8.5756 C.ar      1 <0>        -0.1599
     30 C22        -3.2151   -6.4395   -7.6038 C.ar      1 <0>        -0.0102
     31 C23        -4.4806   -6.0160   -7.2704 C.ar      1 <0>        -0.0119
     32 C24        -5.6633   -6.5953   -7.8981 C.ar      1 <0>         0.0563
     33 C25        -5.5564   -7.5667   -8.8282 C.ar      1 <0>        -0.1760
     34 C26        -4.2294   -8.0549   -9.2203 C.ar      1 <0>         0.3410
     35 N5         -3.8689   -8.9736  -10.0830 N.pl3     1 <0>        -0.5673
     36 C27        -2.4050   -9.0624  -10.0900 C.3       1 <0>         0.0952
     37 H2         -2.0163   -8.8189  -11.0788 H         1 <0>         0.1801
     38 C28        -1.9633  -10.4689   -9.6804 C.3       1 <0>        -0.1590
     39 C29        -4.6404   -4.9867   -6.2876 C.1       1 <0>         0.2145
     40 N6         -4.7672   -4.1702   -5.5080 N.1       1 <0>        -0.3434
     41 H3         -2.0409    1.6007   -2.7596 H         1 <0>         0.0671
     42 H4         -2.9822    0.4764   -3.7686 H         1 <0>         0.0615
     43 H5         -3.6158    0.9985   -2.1893 H         1 <0>         0.0799
     44 H6         -1.7498   -0.1744   -1.0529 H         1 <0>         0.0942
     45 H7         -2.6911   -1.2988   -2.0619 H         1 <0>         0.0895
     46 H8          2.7902   -4.3890   -2.1436 H         1 <0>         0.1411
     47 H9          1.5594   -5.1741   -0.1377 H         1 <0>         0.1476
     48 H10        -0.5201   -4.0466    0.5281 H         1 <0>         0.1683
     49 H11         3.6412   -5.0005   -4.0467 H         1 <0>         0.0940
     50 H12         1.8542   -5.0253   -3.9351 H         1 <0>         0.0993
     51 H13         3.2584   -1.8692   -6.1479 H         1 <0>         0.0922
     52 H14         4.5735   -2.9054   -5.5119 H         1 <0>         0.0884
     53 H15         5.1895   -4.6438   -6.8785 H         1 <0>         0.1241
     54 H16         4.1593   -5.1973   -8.2213 H         1 <0>         0.0964
     55 H17         5.1363   -2.3387   -7.7769 H         1 <0>         0.1354
     56 H18         5.7571   -3.4738   -8.9989 H         1 <0>         0.1425
     57 H19         4.1474   -2.0335   -9.9482 H         1 <0>         0.4369
     58 H20         2.9622   -1.4692   -7.9324 H         1 <0>         0.1375
     59 H21         1.8882   -1.9264   -9.2758 H         1 <0>         0.1385
     60 H22         1.7545   -4.2355   -8.3935 H         1 <0>         0.0905
     61 H23         1.2312   -3.0608   -7.1618 H         1 <0>         0.1237
     62 H24         1.6491   -6.8468   -7.7006 H         1 <0>         0.4054
     63 H25        -1.0075   -6.9923   -6.7532 H         1 <0>         0.0877
     64 H26        -0.9338   -5.7523   -8.0281 H         1 <0>         0.0852
     65 H27         0.0491   -7.4124   -9.5859 H         1 <0>         0.1315
     66 H28        -0.0247   -8.6524   -8.3110 H         1 <0>         0.1355
     67 H29        -2.3545   -5.9959   -7.1252 H         1 <0>         0.1752
     68 H30        -6.6425   -6.2403   -7.6128 H         1 <0>         0.1758
     69 H31        -6.4435   -7.9833   -9.2818 H         1 <0>         0.1778
     70 H32        -2.3837  -10.7120   -8.7046 H         1 <0>         0.0858
     71 H33        -2.3164  -11.1897  -10.4179 H         1 <0>         0.1008
     72 H34        -0.8753  -10.5069   -9.6271 H         1 <0>         0.1080
     73 H35        -4.4703   -9.5036  -10.6292 H         1 <0>         0.4603
     74 H36         3.5338   -3.5604   -9.9090 H         1 <0>         0.4251
@<TRIPOS>BOND
     1    1    2 1
     2    1   41 1
     3    1   42 1
     4    1   43 1
     5    2    3 1
     6    2   44 1
     7    2   45 1
     8    3    4 1
     9    4    9 ar
    10    4    5 ar
    11    5    6 ar
    12    5   10 1
    13    6    7 ar
    14    6   46 1
    15    7    8 ar
    16    7   47 1
    17    8    9 ar
    18    8   48 1
    19   10   11 2
    20   10   12 am
    21   12   17 1
    22   12   13 1
    23   13   14 1
    24   13   49 1
    25   13   50 1
    26   14   15 1
    27   14   16 1
    28   14   23 1
    29   16   22 1
    30   16   17 1
    31   16   18 1
    32   17   51 1
    33   17   52 1
    34   18   19 1
    35   18   53 1
    36   18   54 1
    37   19   20 1
    38   19   55 1
    39   19   56 1
    40   20   21 1
    41   20   57 1
    42   20   74 1
    43   21   22 1
    44   21   58 1
    45   21   59 1
    46   22   60 1
    47   22   61 1
    48   23   24 2
    49   23   25 am
    50   25   26 1
    51   25   62 1
    52   26   27 1
    53   26   63 1
    54   26   64 1
    55   27   28 1
    56   27   65 1
    57   27   66 1
    58   28   36 1
    59   28   29 2
    60   29   34 ar
    61   29   30 ar
    62   30   31 ar
    63   30   67 1
    64   31   32 ar
    65   31   39 1
    66   32   33 ar
    67   32   68 1
    68   33   34 ar
    69   33   69 1
    70   34   35 2
    71   35   36 1
    72   35   73 1
    73   36   37 1
    74   36   38 1
    75   38   70 1
    76   38   71 1
    77   38   72 1
    78   39   40 3
@<TRIPOS>MOLECULE
ZINC13128619
   65    69     0     0     0
SMALL
USER_CHARGES

@<TRIPOS>ATOM
      1 C1         -0.4536   -2.8888    4.3676 C.ar      1 <0>        -0.1417
      2 C2         -1.0053   -1.9854    5.2618 C.ar      1 <0>         0.0634
      3 C3         -1.6721   -0.8570    4.8123 C.ar      1 <0>        -0.1477
      4 C4         -1.7963   -0.6162    3.4467 C.ar      1 <0>         0.2711
      5 N1         -2.3923    0.3977    2.7563 N.am      1 <0>        -0.6162
      6 C5         -2.2707    0.2248    1.4524 C.2       1 <0>         0.5616
      7 O1         -2.7003    0.9641    0.5856 O.2       1 <0>        -0.3635
      8 C6         -1.5050   -1.0517    1.2330 C.2       1 <0>         0.3500
      9 C7         -1.2301   -1.5425    2.5326 C.ar      1 <0>        -0.2418
     10 C8         -0.5603   -2.6766    3.0071 C.ar      1 <0>         0.0176
     11 N2         -1.1598   -1.6022    0.0664 N.pl3     1 <0>        -0.3493
     12 N3         -0.5418   -2.8592    0.0406 N.pl3     1 <0>        -0.4896
     13 C9         -1.3068   -4.0006   -0.0262 C.cat     1 <0>         0.4465
     14 N4         -0.7401   -5.1718    0.0655 N.pl3     1 <0>        -0.5795
     15 C10         0.7203   -5.2771    0.1138 C.3       1 <0>         0.0500
     16 C11         1.1257   -6.7524    0.1063 C.3       1 <0>         0.0611
     17 H1          0.7526   -7.2421   -0.7933 H         1 <0>         0.0996
     18 C12         2.6669   -6.8871    0.1921 C.3       1 <0>        -0.1474
     19 C13         2.8050   -8.3064    0.8073 C.3       1 <0>        -0.1574
     20 C14         1.5765   -8.3804    1.7394 C.3       1 <0>         0.0509
     21 O2          0.6234   -7.4135    1.2785 O.3       1 <0>        -0.3879
     22 S1         -3.0522   -3.8803   -0.2356 S.3       1 <0>         0.0993
     23 C15        -3.6105   -5.6060   -0.2657 C.3       1 <0>        -0.1427
     24 C16        -5.1294   -5.6476   -0.4449 C.3       1 <0>        -0.1046
     25 C17        -5.6003   -7.1031   -0.4702 C.3       1 <0>        -0.1320
     26 C18        -7.1192   -7.1446   -0.6494 C.3       1 <0>         0.1113
     27 N5         -7.5701   -8.5383   -0.6737 N.am      1 <0>        -0.5807
     28 C19        -7.6683   -9.2873   -1.7868 C.2       1 <0>         0.5777
     29 O3         -7.4020   -8.9208   -2.9136 O.2       1 <0>        -0.4594
     30 C20        -8.1547  -10.6310   -1.4090 C.ar      1 <0>        -0.1483
     31 C21        -8.4398  -11.7902   -2.1126 C.ar      1 <0>        -0.0400
     32 C22        -8.8929  -12.9114   -1.4351 C.ar      1 <0>        -0.0889
     33 C23        -9.0620  -12.8806   -0.0636 C.ar      1 <0>        -0.0893
     34 C24        -8.7808  -11.7281    0.6534 C.ar      1 <0>        -0.0401
     35 C25        -8.3271  -10.5996   -0.0105 C.ar      1 <0>        -0.1489
     36 C26        -7.9349   -9.2394    0.4149 C.2       1 <0>         0.5788
     37 O4         -7.9427   -8.8237    1.5560 O.2       1 <0>        -0.4614
     38 H2          0.0663   -3.7607    4.7364 H         1 <0>         0.1677
     39 H3         -0.9147   -2.1633    6.3232 H         1 <0>         0.1762
     40 H4         -2.0967   -0.1631    5.5227 H         1 <0>         0.1748
     41 H5         -0.1293   -3.3824    2.3125 H         1 <0>         0.1315
     42 H6         -1.3370   -1.1317   -0.7631 H         1 <0>         0.4809
     43 H7          0.4256   -2.9247    0.0698 H         1 <0>         0.4665
     44 H8          1.1495   -4.7780   -0.7550 H         1 <0>         0.1314
     45 H9          1.0889   -4.8037    1.0238 H         1 <0>         0.1210
     46 H10         3.1209   -6.8422   -0.7978 H         1 <0>         0.1005
     47 H11         3.0912   -6.1301    0.8516 H         1 <0>         0.0891
     48 H12         2.7511   -9.0717    0.0331 H         1 <0>         0.0890
     49 H13         3.7300   -8.3939    1.3771 H         1 <0>         0.0990
     50 H14         1.1393   -9.3780    1.6964 H         1 <0>         0.0850
     51 H15         1.8739   -8.1495    2.7623 H         1 <0>         0.0834
     52 H16        -3.1324   -6.1282   -1.0945 H         1 <0>         0.1267
     53 H17        -3.3419   -6.0912    0.6727 H         1 <0>         0.1266
     54 H18        -5.6074   -5.1254    0.3839 H         1 <0>         0.0953
     55 H19        -5.3979   -5.1624   -1.3833 H         1 <0>         0.0968
     56 H20        -5.1222   -7.6252   -1.2990 H         1 <0>         0.0830
     57 H21        -5.3318   -7.5882    0.4682 H         1 <0>         0.0827
     58 H22        -7.5973   -6.6225    0.1794 H         1 <0>         0.1023
     59 H23        -7.3877   -6.6595   -1.5878 H         1 <0>         0.1027
     60 H24        -8.3098  -11.8198   -3.1843 H         1 <0>         0.1450
     61 H25        -9.1157  -13.8152   -1.9828 H         1 <0>         0.1482
     62 H26        -9.4160  -13.7605    0.4530 H         1 <0>         0.1481
     63 H27        -8.9151  -11.7097    1.7249 H         1 <0>         0.1448
     64 H28        -2.8470    1.1485    3.1693 H         1 <0>         0.4643
     65 H29        -1.2857   -5.9730    0.1018 H         1 <0>         0.4569
@<TRIPOS>BOND
     1    1   10 ar
     2    1    2 ar
     3    1   38 1
     4    2    3 ar
     5    2   39 1
     6    3    4 ar
     7    3   40 1
     8    4    9 ar
     9    4    5 2
    10    5    6 am
    11    5   64 1
    12    6    7 2
    13    6    8 1
    14    8    9 2
    15    8   11 1
    16    9   10 ar
    17   10   41 1
    18   11   12 1
    19   11   42 1
    20   12   13 1
    21   12   43 1
    22   13   14 2
    23   13   22 1
    24   14   15 1
    25   14   65 1
    26   15   16 1
    27   15   44 1
    28   15   45 1
    29   16   17 1
    30   16   21 1
    31   16   18 1
    32   18   19 1
    33   18   46 1
    34   18   47 1
    35   19   20 1
    36   19   48 1
    37   19   49 1
    38   20   21 1
    39   20   50 1
    40   20   51 1
    41   22   23 1
    42   23   24 1
    43   23   52 1
    44   23   53 1
    45   24   25 1
    46   24   54 1
    47   24   55 1
    48   25   26 1
    49   25   56 1
    50   25   57 1
    51   26   27 1
    52   26   58 1
    53   26   59 1
    54   27   36 am
    55   27   28 am
    56   28   29 2
    57   28   30 1
    58   30   35 ar
    59   30   31 ar
    60   31   32 ar
    61   31   60 1
    62   32   33 ar
    63   32   61 1
    64   33   34 ar
    65   33   62 1
    66   34   35 ar
    67   34   63 1
    68   35   36 1
    69   36   37 2
@<TRIPOS>MOLECULE
ZINC63515602
   68    71     0     0     0
SMALL
USER_CHARGES

@<TRIPOS>ATOM
      1 C1          0.7855    1.2222    0.8118 C.3       1 <0>        -0.1548
      2 C2          0.6299   -0.2951    0.6918 C.3       1 <0>         0.0542
      3 O1         -0.7535   -0.6220    0.5456 O.3       1 <0>        -0.3140
      4 C3         -1.0671   -1.9397    0.4255 C.ar      1 <0>         0.1063
      5 C4         -0.0635   -2.8969    0.4537 C.ar      1 <0>        -0.1530
      6 C5         -0.3820   -4.2352    0.3313 C.ar      1 <0>        -0.1578
      7 C6         -1.7055   -4.6222    0.1805 C.ar      1 <0>         0.1061
      8 C7         -2.7089   -3.6654    0.1528 C.ar      1 <0>        -0.1208
      9 C8         -2.3908   -2.3270    0.2805 C.ar      1 <0>        -0.0974
     10 C9         -4.1468   -4.0858   -0.0110 C.3       1 <0>         0.2455
     11 H1         -4.1675   -4.9501   -0.6749 H         1 <0>         0.1167
     12 C10        -4.6622   -4.5254    1.3444 C.2       1 <0>        -0.1536
     13 C11        -5.7395   -3.8836    1.8456 C.2       1 <0>         0.1715
     14 N1         -6.3429   -2.8729    1.1533 N.am      1 <0>        -0.6514
     15 C12        -5.9299   -2.4447   -0.0463 C.2       1 <0>         0.7078
     16 O2         -6.5319   -1.5368   -0.5857 O.2       1 <0>        -0.5360
     17 N2         -4.8684   -2.9867   -0.6741 N.am      1 <0>        -0.7045
     18 C13        -6.2850   -4.2896    3.1904 C.3       1 <0>        -0.1221
     19 S1         -5.8353   -3.0413    4.4273 S.3       1 <0>         0.0484
     20 C14        -6.5565   -3.6705    5.9682 C.3       1 <0>         0.2191
     21 H2         -6.3314   -2.9917    6.7908 H         1 <0>         0.2683
     22 N3         -6.0298   -5.0094    6.2612 N.pl3     1 <0>        -0.4656
     23 C15        -7.0397   -5.8305    6.2815 C.ar      1 <0>         0.3152
     24 C16        -7.1466   -7.2770    6.5168 C.ar      1 <0>        -0.1326
     25 C17        -8.3563   -7.8703    6.4736 C.ar      1 <0>         0.0355
     26 C18        -9.5404   -7.1592    6.2094 C.ar      1 <0>         0.0877
     27 C19        -9.5546   -5.8309    5.9794 C.ar      1 <0>        -0.1638
     28 C20        -8.2931   -5.0777    6.0023 C.ar      1 <0>         0.3110
     29 N4         -8.0098   -3.8191    5.8206 N.pl3     1 <0>        -0.4800
     30 C21       -10.8456   -7.9121    6.1817 C.3       1 <0>        -0.1617
     31 C22        -4.0365   -5.5728    2.0602 C.2       1 <0>         0.5276
     32 O3         -4.2219   -6.7297    1.7318 O.2       1 <0>        -0.4556
     33 O4         -3.2339   -5.2890    3.1072 O.3       1 <0>        -0.3487
     34 C23        -2.5483   -6.3856    3.7150 C.3       1 <0>         0.0534
     35 C24        -1.7845   -5.8910    4.9450 C.3       1 <0>        -0.1524
     36 O5         -2.0191   -5.9399    0.0595 O.3       1 <0>        -0.3160
     37 C25        -0.9298   -6.8626   -0.0059 C.3       1 <0>         0.0558
     38 C26        -1.4694   -8.2711   -0.2622 C.3       1 <0>        -0.1528
     39 H3          1.8407    1.4716    0.9232 H         1 <0>         0.0840
     40 H4          0.3921    1.6999   -0.0855 H         1 <0>         0.0697
     41 H5          0.2345    1.5762    1.6831 H         1 <0>         0.0659
     42 H6          1.1809   -0.6490   -0.1796 H         1 <0>         0.0657
     43 H7          1.0233   -0.7728    1.5891 H         1 <0>         0.0624
     44 H8          0.9669   -2.5956    0.5711 H         1 <0>         0.1375
     45 H9          0.3995   -4.9804    0.3525 H         1 <0>         0.1372
     46 H10        -3.1726   -1.5821    0.2630 H         1 <0>         0.1347
     47 H11        -7.1142   -2.4411    1.5528 H         1 <0>         0.4263
     48 H12        -4.5861   -2.6601   -1.5427 H         1 <0>         0.4456
     49 H13        -7.3705   -4.3697    3.1331 H         1 <0>         0.1306
     50 H14        -5.8642   -5.2534    3.4772 H         1 <0>         0.1218
     51 H15        -6.2618   -7.8611    6.7226 H         1 <0>         0.2091
     52 H16        -8.4186   -8.9342    6.6486 H         1 <0>         0.2058
     53 H17       -10.4870   -5.3237    5.7800 H         1 <0>         0.2059
     54 H18       -11.2811   -7.9211    7.1808 H         1 <0>         0.1329
     55 H19       -11.5323   -7.4235    5.4904 H         1 <0>         0.1119
     56 H20       -10.6673   -8.9362    5.8538 H         1 <0>         0.1153
     57 H21        -3.2710   -7.1438    4.0167 H         1 <0>         0.0653
     58 H22        -1.8467   -6.8164    3.0007 H         1 <0>         0.0799
     59 H23        -1.1917   -6.7075    5.3573 H         1 <0>         0.0905
     60 H24        -1.1250   -5.0720    4.6581 H         1 <0>         0.0780
     61 H25        -2.4928   -5.5410    5.6960 H         1 <0>         0.0497
     62 H26        -0.2599   -6.5769   -0.8170 H         1 <0>         0.0678
     63 H27        -0.3845   -6.8485    0.9378 H         1 <0>         0.0592
     64 H28        -0.6482   -8.9870   -0.2253 H         1 <0>         0.0823
     65 H29        -2.2054   -8.5228    0.5013 H         1 <0>         0.0664
     66 H30        -1.9388   -8.3071   -1.2453 H         1 <0>         0.0688
     67 H31        -5.0997   -5.2400    6.4118 H         1 <0>         0.4968
     68 H32        -8.6421   -3.1101    5.6246 H         1 <0>         0.4978
@<TRIPOS>BOND
     1    1    2 1
     2    1   39 1
     3    1   40 1
     4    1   41 1
     5    2    3 1
     6    2   42 1
     7    2   43 1
     8    3    4 1
     9    4    9 ar
    10    4    5 ar
    11    5    6 ar
    12    5   44 1
    13    6    7 ar
    14    6   45 1
    15    7    8 ar
    16    7   36 1
    17    8    9 ar
    18    8   10 1
    19    9   46 1
    20   10   11 1
    21   10   17 1
    22   10   12 1
    23   12   13 2
    24   12   31 1
    25   13   14 1
    26   13   18 1
    27   14   15 am
    28   14   47 1
    29   15   16 2
    30   15   17 am
    31   17   48 1
    32   18   19 1
    33   18   49 1
    34   18   50 1
    35   19   20 1
    36   20   21 1
    37   20   29 1
    38   20   22 1
    39   22   23 2
    40   22   67 1
    41   23   28 ar
    42   23   24 ar
    43   24   25 ar
    44   24   51 1
    45   25   26 ar
    46   25   52 1
    47   26   27 ar
    48   26   30 1
    49   27   28 ar
    50   27   53 1
    51   28   29 2
    52   29   68 1
    53   30   54 1
    54   30   55 1
    55   30   56 1
    56   31   32 2
    57   31   33 1
    58   33   34 1
    59   34   35 1
    60   34   57 1
    61   34   58 1
    62   35   59 1
    63   35   60 1
    64   35   61 1
    65   36   37 1
    66   37   38 1
    67   37   62 1
    68   37   63 1
    69   38   64 1
    70   38   65 1
    71   38   66 1
@<TRIPOS>MOLECULE
ZINC08770885
   66    70     0     0     0
SMALL
USER_CHARGES
6-[[4-(2-methoxyphenyl)piperazin-1-yl]methyl]-N'-(4-phenoxyphenyl)-1,3,5-triazine-2,4-diamine
@<TRIPOS>ATOM
      1 C1          1.2320    9.1962   -1.9740 C.3       1 <0>         0.0205
      2 O1          2.3850    8.3733   -1.7853 O.3       1 <0>        -0.2988
      3 C2          3.5837    8.8943   -2.1617 C.ar      1 <0>         0.1648
      4 C3          3.6477   10.1664   -2.7057 C.ar      1 <0>        -0.2030
      5 C4          4.8678   10.6968   -3.0830 C.ar      1 <0>        -0.0626
      6 C5          6.0251    9.9564   -2.9287 C.ar      1 <0>        -0.1460
      7 C6          5.9691    8.6839   -2.3919 C.ar      1 <0>        -0.1060
      8 C7          4.7494    8.1473   -2.0063 C.ar      1 <0>         0.0247
      9 N1          4.6899    6.8588   -1.4629 N.pl3     1 <0>        -0.4799
     10 C8          5.4183    6.7906   -0.1883 C.3       1 <0>         0.0332
     11 C9          5.2628    5.3909    0.4108 C.3       1 <0>         0.0083
     12 C10         5.0475    4.4625   -1.8142 C.3       1 <0>         0.0062
     13 C11         5.2030    5.8623   -2.4133 C.3       1 <0>         0.0295
     14 C12         5.7135    3.0420    0.0307 C.3       1 <0>         0.0813
     15 C13         6.2515    3.0651    1.4382 C.ar      1 <0>         0.3824
     16 N2          5.4348    3.2918    2.4523 N.ar      1 <0>        -0.6192
     17 C14         5.9063    3.3129    3.6969 C.ar      1 <0>         0.6398
     18 N3          7.1997    3.1058    3.9190 N.ar      1 <0>        -0.6224
     19 C15         8.0175    2.8782    2.8971 C.ar      1 <0>         0.6395
     20 N4          7.5375    2.8533    1.6555 N.ar      1 <0>        -0.6189
     21 N5          9.3627    2.6623    3.1228 N.pl3     1 <0>        -0.6118
     22 C16         9.8916    2.8237    4.4094 C.ar      1 <0>         0.1335
     23 C17        11.1752    3.3269    4.5747 C.ar      1 <0>        -0.1171
     24 C18        11.6937    3.4916    5.8439 C.ar      1 <0>        -0.1204
     25 C19        10.9370    3.1432    6.9533 C.ar      1 <0>         0.0888
     26 C20         9.6568    2.6346    6.7886 C.ar      1 <0>        -0.1049
     27 C21         9.1347    2.4752    5.5203 C.ar      1 <0>        -0.0917
     28 O2         11.4501    3.3008    8.2025 O.3       1 <0>        -0.2564
     29 C22        12.5102    2.5290    8.5587 C.ar      1 <0>         0.1155
     30 C23        12.9792    1.5504    7.6940 C.ar      1 <0>        -0.1966
     31 C24        14.0610    0.7713    8.0560 C.ar      1 <0>        -0.0823
     32 C25        14.6690    0.9581    9.2838 C.ar      1 <0>        -0.1482
     33 C26        14.1998    1.9284   10.1499 C.ar      1 <0>        -0.0806
     34 C27        13.1222    2.7143    9.7903 C.ar      1 <0>        -0.1426
     35 N6          5.0528    3.5502    4.7550 N.pl3     1 <0>        -0.7888
     36 H1          0.3449    8.6622   -1.6336 H         1 <0>         0.1054
     37 H2          1.3445   10.1163   -1.4005 H         1 <0>         0.0584
     38 H3          1.1272    9.4378   -3.0317 H         1 <0>         0.0590
     39 H4          2.7450   10.7457   -2.8318 H         1 <0>         0.1380
     40 H5          4.9162   11.6905   -3.5032 H         1 <0>         0.1336
     41 H6          6.9753   10.3732   -3.2286 H         1 <0>         0.1304
     42 H7          6.8746    8.1074   -2.2732 H         1 <0>         0.1240
     43 H8          6.4745    6.9968   -0.3616 H         1 <0>         0.0599
     44 H9          5.0118    7.5292    0.5027 H         1 <0>         0.1221
     45 H10         4.2090    5.1953    0.6093 H         1 <0>         0.1491
     46 H11         5.8261    5.3292    1.3419 H         1 <0>         0.1200
     47 H12         3.9913    4.2564   -1.6410 H         1 <0>         0.1455
     48 H13         5.4536    3.7240   -2.5054 H         1 <0>         0.1406
     49 H14         4.6397    5.9240   -3.3444 H         1 <0>         0.1268
     50 H15         6.2568    6.0579   -2.6118 H         1 <0>         0.0633
     51 H16         4.6785    2.7002    0.0429 H         1 <0>         0.1615
     52 H17         6.3130    2.3637   -0.5764 H         1 <0>         0.1583
     53 H18         9.9413    2.3989    2.3901 H         1 <0>         0.4316
     54 H19        11.7660    3.5940    3.7110 H         1 <0>         0.1357
     55 H20        12.6903    3.8875    5.9728 H         1 <0>         0.1391
     56 H21         9.0682    2.3636    7.6527 H         1 <0>         0.1397
     57 H22         8.1378    2.0799    5.3922 H         1 <0>         0.1514
     58 H23        12.5018    1.4011    6.7368 H         1 <0>         0.1274
     59 H24        14.4291    0.0125    7.3815 H         1 <0>         0.1269
     60 H25        15.5116    0.3447    9.5669 H         1 <0>         0.1278
     61 H26        14.6764    2.0723   11.1083 H         1 <0>         0.1340
     62 H27        12.7561    3.4721   10.4671 H         1 <0>         0.1338
     63 H28         4.1087    3.7016    4.5921 H         1 <0>         0.4254
     64 H29         5.3970    3.5654    5.6617 H         1 <0>         0.4265
     65 N7          5.8025    4.4010   -0.5448 N.4       1 <0>        -0.3932
     66 H30         6.7880    4.6203   -0.7316 H         1 <0>         0.4283
@<TRIPOS>BOND
     1    1    2 1
     2    1   36 1
     3    1   37 1
     4    1   38 1
     5    2    3 1
     6    3    8 ar
     7    3    4 ar
     8    4    5 ar
     9    4   39 1
    10    5    6 ar
    11    5   40 1
    12    6    7 ar
    13    6   41 1
    14    7    8 ar
    15    7   42 1
    16    8    9 1
    17    9   13 1
    18    9   10 1
    19   10   11 1
    20   10   43 1
    21   10   44 1
    22   11   45 1
    23   11   46 1
    24   11   65 1
    25   12   13 1
    26   12   47 1
    27   12   48 1
    28   12   65 1
    29   13   49 1
    30   13   50 1
    31   14   15 1
    32   14   51 1
    33   14   52 1
    34   14   65 1
    35   15   20 ar
    36   15   16 ar
    37   16   17 ar
    38   17   18 ar
    39   17   35 1
    40   18   19 ar
    41   19   20 ar
    42   19   21 1
    43   21   22 1
    44   21   53 1
    45   22   27 ar
    46   22   23 ar
    47   23   24 ar
    48   23   54 1
    49   24   25 ar
    50   24   55 1
    51   25   26 ar
    52   25   28 1
    53   26   27 ar
    54   26   56 1
    55   27   57 1
    56   28   29 1
    57   29   34 ar
    58   29   30 ar
    59   30   31 ar
    60   30   58 1
    61   31   32 ar
    62   31   59 1
    63   32   33 ar
    64   32   60 1
    65   33   34 ar
    66   33   61 1
    67   34   62 1
    68   35   63 1
    69   35   64 1
    70   65   66 1
@<TRIPOS>MOLECULE
ZINC15480429
   72    75     0     0     0
SMALL
USER_CHARGES
N-(2,3-dimethylphenyl)-2-[[2-[[(2S)-2-(1H-indol-3-yl)-2-(4-methoxyphenyl)ethyl]amino]-2-oxo-ethyl]-methyl-amino]acetamide
@<TRIPOS>ATOM
      1 C1         -4.1712   11.0635   -2.3883 C.3       1 <0>        -0.1224
      2 C2         -3.2567   10.1573   -1.6050 C.ar      1 <0>        -0.0621
      3 C3         -2.1294   10.6748   -0.9934 C.ar      1 <0>        -0.1173
      4 C4         -1.2878    9.8467   -0.2739 C.ar      1 <0>        -0.0999
      5 C5         -1.5713    8.4993   -0.1631 C.ar      1 <0>        -0.1264
      6 C6         -2.7026    7.9767   -0.7755 C.ar      1 <0>         0.1238
      7 C7         -3.5426    8.8101   -1.5028 C.ar      1 <0>        -0.1038
      8 C8         -4.7678    8.2459   -2.1747 C.3       1 <0>        -0.1214
      9 N1         -2.9926    6.6123   -0.6652 N.am      1 <0>        -0.6395
     10 C9         -2.0017    5.7296   -0.4296 C.2       1 <0>         0.4969
     11 O1         -0.8480    6.1033   -0.4129 O.2       1 <0>        -0.5034
     12 C10        -2.3273    4.2784   -0.1870 C.3       1 <0>        -0.0259
     13 C11        -0.4360    3.9554    1.2900 C.3       1 <0>        -0.0589
     14 C12        -1.3353    2.0821    0.0472 C.3       1 <0>        -0.0284
     15 C13        -0.0211    1.3445    0.0381 C.2       1 <0>         0.4979
     16 O2          1.0216    1.9637    0.0236 O.2       1 <0>        -0.5247
     17 N2         -0.0047   -0.0031    0.0404 N.am      1 <0>        -0.6939
     18 C14         1.2728   -0.7201    0.0254 C.3       1 <0>         0.1268
     19 C15         1.0116   -2.2277    0.0316 C.3       1 <0>         0.0277
     20 H1          0.3581   -2.4866   -0.8015 H         1 <0>         0.0944
     21 C16         2.3188   -2.9645   -0.1076 C.ar      1 <0>        -0.1186
     22 C17         3.3140   -2.7887    0.8360 C.ar      1 <0>        -0.0732
     23 C18         4.5110   -3.4673    0.7137 C.ar      1 <0>        -0.2054
     24 C19         4.7185   -4.3169   -0.3633 C.ar      1 <0>         0.1346
     25 C20         3.7205   -4.4873   -1.3117 C.ar      1 <0>        -0.1474
     26 C21         2.5229   -3.8110   -1.1816 C.ar      1 <0>        -0.0669
     27 O3          5.8977   -4.9807   -0.4893 O.3       1 <0>        -0.3152
     28 C22         6.8796   -4.7570    0.5245 C.3       1 <0>         0.0257
     29 C23         0.3507   -2.6177    1.3286 C.2       1 <0>        -0.1755
     30 C24         0.8565   -2.4590    2.5618 C.2       1 <0>         0.0652
     31 N3         -0.0297   -2.9271    3.4934 N.pl3     1 <0>        -0.5919
     32 H2          0.1132   -2.9170    4.4528 H         1 <0>         0.4187
     33 C25        -1.1519   -3.4198    2.8659 C.ar      1 <0>         0.0964
     34 C26        -0.9629   -3.2476    1.4823 C.ar      1 <0>        -0.1004
     35 C27        -1.9512   -3.6615    0.5875 C.ar      1 <0>        -0.0797
     36 C28        -3.0989   -4.2327    1.0609 C.ar      1 <0>        -0.1390
     37 C29        -3.2899   -4.4052    2.4248 C.ar      1 <0>        -0.0956
     38 C30        -2.3275   -4.0039    3.3255 C.ar      1 <0>        -0.1270
     39 H3         -3.8455   11.0978   -3.4279 H         1 <0>         0.0767
     40 H4         -5.1907   10.6811   -2.3394 H         1 <0>         0.0720
     41 H5         -4.1387   12.0670   -1.9641 H         1 <0>         0.0735
     42 H6         -1.9057   11.7280   -1.0783 H         1 <0>         0.1301
     43 H7         -0.4081   10.2538    0.2023 H         1 <0>         0.1311
     44 H8         -0.9140    7.8531    0.3997 H         1 <0>         0.1416
     45 H9         -5.6135    8.2951   -1.4888 H         1 <0>         0.0765
     46 H10        -4.9915    8.8268   -3.0695 H         1 <0>         0.0812
     47 H11        -4.5847    7.2078   -2.4519 H         1 <0>         0.0597
     48 H12        -3.9068    6.3017   -0.7581 H         1 <0>         0.4189
     49 H13        -2.8414    3.8709   -1.0575 H         1 <0>         0.1627
     50 H14        -2.9707    4.1918    0.6885 H         1 <0>         0.1668
     51 H15         0.5160    3.4361    1.4003 H         1 <0>         0.1399
     52 H16        -0.2619    5.0310    1.2601 H         1 <0>         0.1363
     53 H17        -1.0810    3.7152    2.1352 H         1 <0>         0.1189
     54 H18        -1.9107    1.8102   -0.8377 H         1 <0>         0.1605
     55 H19        -1.8965    1.8134    0.9422 H         1 <0>         0.1630
     56 H20        -0.8387   -0.4983    0.0520 H         1 <0>         0.4125
     57 H21         1.8297   -0.4516   -0.8723 H         1 <0>         0.0859
     58 H22         1.8524   -0.4482    0.9075 H         1 <0>         0.0797
     59 H23         3.1539   -2.1233    1.6714 H         1 <0>         0.1199
     60 H24         5.2866   -3.3327    1.4531 H         1 <0>         0.1297
     61 H25         3.8795   -5.1483   -2.1508 H         1 <0>         0.1343
     62 H26         1.7456   -3.9433   -1.9197 H         1 <0>         0.1305
     63 H27         6.4772   -5.0560    1.4924 H         1 <0>         0.0566
     64 H28         7.7702   -5.3455    0.3039 H         1 <0>         0.1042
     65 H29         7.1405   -3.6990    0.5506 H         1 <0>         0.0571
     66 H30         1.8192   -2.0237    2.7857 H         1 <0>         0.1661
     67 H31        -1.8094   -3.5305   -0.4751 H         1 <0>         0.1202
     68 H32        -3.8632   -4.5528    0.3683 H         1 <0>         0.1245
     69 H33        -4.2019   -4.8589    2.7836 H         1 <0>         0.1277
     70 H34        -2.4856   -4.1421    4.3849 H         1 <0>         0.1213
     71 N4         -1.0666    3.5353    0.0209 N.4       1 <0>        -0.3688
     72 H35        -0.4259    3.7420   -0.7543 H         1 <0>         0.4444
@<TRIPOS>BOND
     1    1    2 1
     2    1   39 1
     3    1   40 1
     4    1   41 1
     5    2    7 ar
     6    2    3 ar
     7    3    4 ar
     8    3   42 1
     9    4    5 ar
    10    4   43 1
    11    5    6 ar
    12    5   44 1
    13    6    7 ar
    14    6    9 1
    15    7    8 1
    16    8   45 1
    17    8   46 1
    18    8   47 1
    19    9   10 am
    20    9   48 1
    21   10   11 2
    22   10   12 1
    23   12   49 1
    24   12   50 1
    25   12   71 1
    26   13   51 1
    27   13   52 1
    28   13   53 1
    29   13   71 1
    30   14   15 1
    31   14   54 1
    32   14   55 1
    33   14   71 1
    34   15   16 2
    35   15   17 am
    36   17   18 1
    37   17   56 1
    38   18   19 1
    39   18   57 1
    40   18   58 1
    41   19   20 1
    42   19   21 1
    43   19   29 1
    44   21   26 ar
    45   21   22 ar
    46   22   23 ar
    47   22   59 1
    48   23   24 ar
    49   23   60 1
    50   24   25 ar
    51   24   27 1
    52   25   26 ar
    53   25   61 1
    54   26   62 1
    55   27   28 1
    56   28   63 1
    57   28   64 1
    58   28   65 1
    59   29   34 1
    60   29   30 2
    61   30   31 1
    62   30   66 1
    63   31   32 1
    64   31   33 1
    65   33   38 ar
    66   33   34 ar
    67   34   35 ar
    68   35   36 ar
    69   35   67 1
    70   36   37 ar
    71   36   68 1
    72   37   38 ar
    73   37   69 1
    74   38   70 1
    75   71   72 1
@<TRIPOS>MOLECULE
ZINC22635335
   80    83     0     0     0
SMALL
USER_CHARGES
(6R)-6-tert-butyl-N-(2,4-dimethylphenyl)-2-[[2-[4-(2-hydroxyethyl)piperazin-1-yl]acetyl]amino]-4,5,6,7-tetrahydrobenzothiophene-3-carboxamide
@<TRIPOS>ATOM
      1 C1         -9.7340   -2.2168    2.0705 C.3       1 <0>        -0.1193
      2 C2         -8.2879   -2.5876    1.8651 C.ar      1 <0>        -0.0952
      3 C3         -7.5802   -2.0462    0.8073 C.ar      1 <0>        -0.1044
      4 C4         -6.2551   -2.3843    0.6160 C.ar      1 <0>        -0.1363
      5 C5         -5.6329   -3.2692    1.4874 C.ar      1 <0>         0.1372
      6 C6         -6.3479   -3.8155    2.5452 C.ar      1 <0>        -0.1107
      7 C7         -7.6716   -3.4687    2.7342 C.ar      1 <0>        -0.0985
      8 C8         -5.6787   -4.7807    3.4893 C.3       1 <0>        -0.1180
      9 N1         -4.2909   -3.6137    1.2965 N.am      1 <0>        -0.6694
     10 C9         -3.7152   -3.4387    0.0906 C.2       1 <0>         0.5746
     11 O1         -4.3862   -3.0730   -0.8568 O.2       1 <0>        -0.5062
     12 C10        -2.2808   -3.6886   -0.0801 C.2       1 <0>        -0.1902
     13 C11        -1.7844   -5.0006   -0.4592 C.2       1 <0>        -0.0709
     14 C12        -0.4420   -5.0963   -0.5749 C.2       1 <0>        -0.1792
     15 S1          0.1614   -3.4753   -0.1975 S.3       1 <0>         0.2270
     16 C13        -1.3468   -2.6800    0.1105 C.2       1 <0>         0.0415
     17 N2         -1.5668   -1.3581    0.4668 N.am      1 <0>        -0.6086
     18 C14        -0.5238   -0.5170    0.6126 C.2       1 <0>         0.4981
     19 O2          0.6071   -0.9162    0.4321 O.2       1 <0>        -0.5002
     20 C15        -0.7629    0.9197    0.9999 C.3       1 <0>        -0.0209
     21 N3          0.5238    1.6223    1.0932 N.4       1 <0>        -0.3885
     22 C16         1.3327    1.0949    2.2010 C.3       1 <0>        -0.0070
     23 C17         2.6930    1.7962    2.2148 C.3       1 <0>         0.0238
     24 N4          2.4927    3.2452    2.3560 N.3       1 <0>        -0.5338
     25 C18         1.6838    3.7726    1.2482 C.3       1 <0>         0.0190
     26 C19         0.3235    3.0713    1.2344 C.3       1 <0>        -0.0004
     27 C20         3.7794    3.9478    2.4493 C.3       1 <0>         0.0526
     28 C21         4.7116    3.4542    1.3411 C.3       1 <0>         0.0397
     29 O3          4.1786    3.8276    0.0688 O.3       1 <0>        -0.6066
     30 C22         0.3483   -6.3141   -0.9425 C.3       1 <0>        -0.0415
     31 C23        -0.5638   -7.5420   -0.8061 C.3       1 <0>        -0.0671
     32 H1         -0.7420   -7.7634    0.2565 H         1 <0>         0.0781
     33 C24        -1.8940   -7.2486   -1.5060 C.3       1 <0>        -0.1203
     34 C25        -2.6816   -6.2063   -0.7104 C.3       1 <0>        -0.0635
     35 C26         0.1044   -8.7525   -1.4612 C.3       1 <0>        -0.0620
     36 C27         1.4409   -9.0327   -0.7713 C.3       1 <0>        -0.1475
     37 C28        -0.8064   -9.9742   -1.3239 C.3       1 <0>        -0.1481
     38 C29         0.3468   -8.4611   -2.9435 C.3       1 <0>        -0.1512
     39 H2        -10.0464   -1.5109    1.2869 H         1 <0>         0.0664
     40 H3         -9.8553   -1.7463    3.0574 H         1 <0>         0.0706
     41 H4        -10.3559   -3.1226    2.0172 H         1 <0>         0.0716
     42 H5         -8.0644   -1.3580    0.1303 H         1 <0>         0.1248
     43 H6         -5.7030   -1.9609   -0.2100 H         1 <0>         0.1486
     44 H7         -8.2270   -3.8901    3.5591 H         1 <0>         0.1269
     45 H8         -6.3989   -5.1027    4.2558 H         1 <0>         0.0747
     46 H9         -4.8239   -4.2864    3.9740 H         1 <0>         0.0651
     47 H10        -5.3248   -5.6575    2.9272 H         1 <0>         0.0699
     48 H11        -3.7053   -4.0275    2.1306 H         1 <0>         0.4344
     49 H12        -2.5925   -0.9960    0.6304 H         1 <0>         0.4544
     50 H13        -1.3913    1.4050    0.2386 H         1 <0>         0.1675
     51 H14        -1.2725    0.9569    1.9740 H         1 <0>         0.1640
     52 H15         0.8144    1.2792    3.1536 H         1 <0>         0.1318
     53 H16         1.4782    0.0129    2.0661 H         1 <0>         0.1467
     54 H17         3.2892    1.4233    3.0607 H         1 <0>         0.1212
     55 H18         3.2223    1.5882    1.2732 H         1 <0>         0.0684
     56 H19         1.5383    4.8545    1.3832 H         1 <0>         0.1203
     57 H20         2.2021    3.5884    0.2956 H         1 <0>         0.0926
     58 H21        -0.2733    3.4431    0.3884 H         1 <0>         0.1368
     59 H22        -0.2064    3.2782    2.1759 H         1 <0>         0.1351
     60 H23         3.6155    5.0296    2.3358 H         1 <0>         0.0954
     61 H24         4.2366    3.7471    3.4295 H         1 <0>         0.1062
     62 H25         5.7058    3.9072    1.4694 H         1 <0>         0.0589
     63 H26         4.7980    2.3589    1.3953 H         1 <0>         0.0494
     64 H27         4.7147    3.5573   -0.8529 H         1 <0>         0.4170
     65 H28         0.7030   -6.2217   -1.9796 H         1 <0>         0.0932
     66 H29         1.2112   -6.4090   -0.2669 H         1 <0>         0.0858
     67 H30        -1.6988   -6.8619   -2.5171 H         1 <0>         0.0713
     68 H31        -2.4840   -8.1744   -1.5751 H         1 <0>         0.0804
     69 H32        -2.9994   -6.6337    0.2521 H         1 <0>         0.0793
     70 H33        -3.5671   -5.8917   -1.2821 H         1 <0>         0.0779
     71 H34         1.9213   -9.9030   -1.2423 H         1 <0>         0.0586
     72 H35         1.2666   -9.2422    0.2944 H         1 <0>         0.0561
     73 H36         2.0957   -8.1544   -0.8700 H         1 <0>         0.0561
     74 H37        -0.3260  -10.8445   -1.7949 H         1 <0>         0.0585
     75 H38        -1.7673   -9.7727   -1.8199 H         1 <0>         0.0600
     76 H39        -0.9807  -10.1837   -0.2582 H         1 <0>         0.0561
     77 H40         0.8272   -9.3314   -3.4145 H         1 <0>         0.0580
     78 H41         1.0016   -7.5828   -3.0422 H         1 <0>         0.0570
     79 H42        -0.6141   -8.2597   -3.4395 H         1 <0>         0.0593
     80 H43         1.0732    1.4449    0.1569 H         1 <0>         0.4478
@<TRIPOS>BOND
     1    1    2 1
     2    1   39 1
     3    1   40 1
     4    1   41 1
     5    2    7 ar
     6    2    3 ar
     7    3    4 ar
     8    3   42 1
     9    4    5 ar
    10    4   43 1
    11    5    6 ar
    12    5    9 1
    13    6    7 ar
    14    6    8 1
    15    7   44 1
    16    8   45 1
    17    8   46 1
    18    8   47 1
    19    9   10 am
    20    9   48 1
    21   10   11 2
    22   10   12 1
    23   12   16 2
    24   12   13 1
    25   13   34 1
    26   13   14 2
    27   14   15 1
    28   14   30 1
    29   15   16 1
    30   16   17 1
    31   17   18 am
    32   17   49 1
    33   18   19 2
    34   18   20 1
    35   20   21 1
    36   20   50 1
    37   20   51 1
    38   21   26 1
    39   21   22 1
    40   21   80 1
    41   22   23 1
    42   22   52 1
    43   22   53 1
    44   23   24 1
    45   23   54 1
    46   23   55 1
    47   24   25 1
    48   24   27 1
    49   25   26 1
    50   25   56 1
    51   25   57 1
    52   26   58 1
    53   26   59 1
    54   27   28 1
    55   27   60 1
    56   27   61 1
    57   28   29 1
    58   28   62 1
    59   28   63 1
    60   29   64 1
    61   30   31 1
    62   30   65 1
    63   30   66 1
    64   31   32 1
    65   31   33 1
    66   31   35 1
    67   33   34 1
    68   33   67 1
    69   33   68 1
    70   34   69 1
    71   34   70 1
    72   35   36 1
    73   35   37 1
    74   35   38 1
    75   36   71 1
    76   36   72 1
    77   36   73 1
    78   37   74 1
    79   37   75 1
    80   37   76 1
    81   38   77 1
    82   38   78 1
    83   38   79 1
@<TRIPOS>MOLECULE
ZINC08686495
   66    68     0     0     0
SMALL
USER_CHARGES

@<TRIPOS>ATOM
      1 C1         -4.0064    0.5117   -3.3128 C.3       1 <0>        -0.1545
      2 C2         -3.3998   -0.8179   -2.8600 C.3       1 <0>         0.0533
      3 O1         -2.7746   -1.4598   -3.9732 O.3       1 <0>        -0.3146
      4 C3         -2.1824   -2.6614   -3.7401 C.ar      1 <0>         0.1247
      5 C4         -2.2088   -3.2120   -2.4671 C.ar      1 <0>        -0.1871
      6 C5         -1.6081   -4.4324   -2.2297 C.ar      1 <0>        -0.0999
      7 C6         -0.9774   -5.1087   -3.2656 C.ar      1 <0>         0.0960
      8 C7         -0.9514   -4.5569   -4.5397 C.ar      1 <0>        -0.0847
      9 C8         -1.5572   -3.3389   -4.7767 C.ar      1 <0>        -0.1344
     10 N1         -0.3675   -6.3462   -3.0256 N.am      1 <0>        -0.6524
     11 C9          0.6491   -6.7596   -3.8080 C.2       1 <0>         0.5713
     12 O2          1.1056   -6.0160   -4.6551 O.2       1 <0>        -0.5404
     13 C10         1.2078   -8.1138   -3.6369 C.ar      1 <0>        -0.1659
     14 C11         0.6130   -9.0122   -2.7478 C.ar      1 <0>        -0.0613
     15 C12         1.1395  -10.2762   -2.5928 C.ar      1 <0>        -0.1282
     16 C13         2.2575  -10.6619   -3.3149 C.ar      1 <0>        -0.0625
     17 C14         2.8561   -9.7851   -4.1970 C.ar      1 <0>        -0.1366
     18 C15         2.3363   -8.5093   -4.3703 C.ar      1 <0>         0.1935
     19 N2          2.9357   -7.6248   -5.2640 N.am      1 <0>        -0.6308
     20 C16         3.6527   -8.0984   -6.3022 C.2       1 <0>         0.5010
     21 O3          3.6910   -9.2911   -6.5189 O.2       1 <0>        -0.5080
     22 C17         4.4069   -7.1460   -7.1939 C.3       1 <0>        -0.0293
     23 N3          5.1026   -7.9039   -8.2425 N.4       1 <0>        -0.3582
     24 C18         4.1148   -8.5531   -9.1147 C.3       1 <0>        -0.0713
     25 C19         5.9327   -6.9898   -9.0384 C.3       1 <0>        -0.0300
     26 C20         6.7399   -7.7824  -10.0341 C.2       1 <0>         0.4998
     27 O4          6.6340   -8.9899  -10.0765 O.2       1 <0>        -0.5052
     28 N4          7.5793   -7.1495  -10.8774 N.am      1 <0>        -0.6431
     29 C21         8.2449   -7.8711  -11.8745 C.ar      1 <0>         0.1098
     30 C22         9.5374   -7.5204  -12.2420 C.ar      1 <0>        -0.1247
     31 C23        10.1916   -8.2346  -13.2266 C.ar      1 <0>        -0.1009
     32 C24         9.5609   -9.2978  -13.8464 C.ar      1 <0>        -0.0774
     33 C25         8.2738   -9.6492  -13.4830 C.ar      1 <0>        -0.1030
     34 C26         7.6164   -8.9429  -12.4948 C.ar      1 <0>        -0.1073
     35 C27        10.2777  -10.0749  -14.9203 C.3       1 <0>        -0.1229
     36 H1         -3.2196    1.1543   -3.7079 H         1 <0>         0.0673
     37 H2         -4.7486    0.3267   -4.0894 H         1 <0>         0.0678
     38 H3         -4.4833    1.0014   -2.4637 H         1 <0>         0.0814
     39 H4         -2.6576   -0.6329   -2.0835 H         1 <0>         0.0634
     40 H5         -4.1866   -1.4604   -2.4649 H         1 <0>         0.0640
     41 H6         -2.6991   -2.6858   -1.6613 H         1 <0>         0.1355
     42 H7         -1.6284   -4.8607   -1.2384 H         1 <0>         0.1309
     43 H8         -0.4611   -5.0823   -5.3459 H         1 <0>         0.1479
     44 H9         -1.5406   -2.9116   -5.7684 H         1 <0>         0.1354
     45 H10        -0.6767   -6.9059   -2.2962 H         1 <0>         0.4141
     46 H11        -0.2583   -8.7164   -2.1824 H         1 <0>         0.1362
     47 H12         0.6788  -10.9695   -1.9048 H         1 <0>         0.1401
     48 H13         2.6632  -11.6545   -3.1864 H         1 <0>         0.1397
     49 H14         3.7272  -10.0933   -4.7562 H         1 <0>         0.1522
     50 H15         2.8369   -6.6679   -5.1390 H         1 <0>         0.4324
     51 H16         3.7075   -6.4477   -7.6537 H         1 <0>         0.1682
     52 H17         5.1355   -6.5930   -6.6011 H         1 <0>         0.1669
     53 H18         3.4989   -9.2314   -8.5241 H         1 <0>         0.1435
     54 H19         3.4815   -7.7943   -9.5743 H         1 <0>         0.1190
     55 H20         4.6310   -9.1155   -9.8927 H         1 <0>         0.1426
     56 H21         5.2917   -6.2856   -9.5687 H         1 <0>         0.1669
     57 H22         6.6058   -6.4426   -8.3785 H         1 <0>         0.1652
     58 H23         7.7221   -6.1938  -10.7931 H         1 <0>         0.4196
     59 H24        10.0303   -6.6899  -11.7586 H         1 <0>         0.1300
     60 H25        11.1966   -7.9622  -13.5131 H         1 <0>         0.1337
     61 H26         7.7838  -10.4798  -13.9692 H         1 <0>         0.1315
     62 H27         6.6131   -9.2211  -12.2079 H         1 <0>         0.1305
     63 H28        10.8262  -10.9004  -14.4667 H         1 <0>         0.0767
     64 H29         9.5506  -10.4685  -15.6306 H         1 <0>         0.0714
     65 H30        10.9747   -9.4178  -15.4404 H         1 <0>         0.0720
     66 H31         5.6888   -8.6063   -7.8171 H         1 <0>         0.4390
@<TRIPOS>BOND
     1    1    2 1
     2    1   36 1
     3    1   37 1
     4    1   38 1
     5    2    3 1
     6    2   39 1
     7    2   40 1
     8    3    4 1
     9    4    9 ar
    10    4    5 ar
    11    5    6 ar
    12    5   41 1
    13    6    7 ar
    14    6   42 1
    15    7    8 ar
    16    7   10 1
    17    8    9 ar
    18    8   43 1
    19    9   44 1
    20   10   11 am
    21   10   45 1
    22   11   12 2
    23   11   13 1
    24   13   18 ar
    25   13   14 ar
    26   14   15 ar
    27   14   46 1
    28   15   16 ar
    29   15   47 1
    30   16   17 ar
    31   16   48 1
    32   17   18 ar
    33   17   49 1
    34   18   19 1
    35   19   20 am
    36   19   50 1
    37   20   21 2
    38   20   22 1
    39   22   23 1
    40   22   51 1
    41   22   52 1
    42   23   24 1
    43   23   25 1
    44   23   66 1
    45   24   53 1
    46   24   54 1
    47   24   55 1
    48   25   26 1
    49   25   56 1
    50   25   57 1
    51   26   27 2
    52   26   28 am
    53   28   29 1
    54   28   58 1
    55   29   34 ar
    56   29   30 ar
    57   30   31 ar
    58   30   59 1
    59   31   32 ar
    60   31   60 1
    61   32   33 ar
    62   32   35 1
    63   33   34 ar
    64   33   61 1
    65   34   62 1
    66   35   63 1
    67   35   64 1
    68   35   65 1
@<TRIPOS>MOLECULE
ZINC43066185
   64    67     0     0     0
SMALL
USER_CHARGES

@<TRIPOS>ATOM
      1 C1          0.0548    1.2473   -0.5279 C.3       1 <0>        -0.1858
      2 C2          0.1354   -0.2722   -0.3682 C.3       1 <0>         0.1056
      3 H1         -0.8713   -0.6840   -0.2975 H         1 <0>         0.0917
      4 C3          0.9038   -0.6056    0.8846 C.ar      1 <0>        -0.0162
      5 C4          2.2738   -0.7826    0.8288 C.ar      1 <0>        -0.0824
      6 C5          2.9785   -1.0884    1.9778 C.ar      1 <0>        -0.0727
      7 C6          2.3134   -1.2167    3.1831 C.ar      1 <0>        -0.1622
      8 C7          0.9439   -1.0388    3.2391 C.ar      1 <0>        -0.0621
      9 C8          0.2396   -0.7287    2.0904 C.ar      1 <0>        -0.1535
     10 C9         -1.2529   -0.5295    2.1524 C.3       1 <0>         0.3064
     11 F1         -1.6346   -0.2725    3.4735 F         1 <0>        -0.1918
     12 F2         -1.6128    0.5539    1.3438 F         1 <0>        -0.1861
     13 C10         3.0816   -1.5510    4.4357 C.3       1 <0>         0.0380
     14 N1          3.5171   -0.3095    5.0891 N.4       1 <0>        -0.5042
     15 C11         4.2660   -0.6354    6.3102 C.3       1 <0>         0.0547
     16 C12         5.4907   -1.4778    5.9478 C.3       1 <0>        -0.1791
     17 C13         4.7196    0.6577    6.9906 C.3       1 <0>        -0.1773
     18 C14         3.3675   -1.4255    7.2638 C.3       1 <0>        -0.1792
     19 O1          0.8020   -0.8354   -1.4998 O.3       1 <0>        -0.2669
     20 C15         0.0426   -1.0994   -2.5943 C.2       1 <0>         0.2028
     21 C16        -1.2777   -0.7393   -2.6341 C.2       1 <0>        -0.2565
     22 C17        -2.0142   -1.0306   -3.7753 C.2       1 <0>         0.0172
     23 S1         -0.8050   -1.8333   -4.8143 S.3       1 <0>         0.1151
     24 C18         0.5913   -1.7388   -3.7063 C.2       1 <0>        -0.2965
     25 C19         1.9127   -2.1963   -3.9038 C.2       1 <0>         0.6156
     26 O2          2.7461   -2.0481   -3.0274 O.2       1 <0>        -0.5314
     27 N2          2.2518   -2.7968   -5.0618 N.am      1 <0>        -0.8536
     28 C20        -3.4275   -0.7503   -4.0552 C.2       1 <0>        -0.0403
     29 C21        -4.3010   -0.0356   -3.2593 C.2       1 <0>         0.1111
     30 N3         -5.4840   -0.0067   -3.8618 N.2       1 <0>        -0.4840
     31 C22        -5.4173   -0.6698   -5.0117 C.2       1 <0>         0.2503
     32 N4         -4.1416   -1.1438   -5.1673 N.pl3     1 <0>        -0.3476
     33 C23        -3.7987   -1.8604   -6.2747 C.2       1 <0>         0.0485
     34 C24        -4.7096   -2.1130   -7.2399 C.2       1 <0>        -0.1216
     35 C25        -6.0240   -1.6378   -7.1122 C.2       1 <0>        -0.0862
     36 C26        -6.3799   -0.9279   -6.0060 C.2       1 <0>        -0.0781
     37 H2          1.0618    1.6632   -0.5603 H         1 <0>         0.0710
     38 H3         -0.4677    1.4881   -1.4537 H         1 <0>         0.0761
     39 H4         -0.4872    1.6731    0.3165 H         1 <0>         0.0960
     40 H5          2.7933   -0.6824   -0.1127 H         1 <0>         0.1556
     41 H6          4.0486   -1.2274    1.9341 H         1 <0>         0.1405
     42 H7          0.4243   -1.1393    4.1805 H         1 <0>         0.1448
     43 H8         -1.7546   -1.4299    1.7979 H         1 <0>         0.1298
     44 H9          2.4415   -2.1139    5.1151 H         1 <0>         0.1419
     45 H10         3.9541   -2.1511    4.1776 H         1 <0>         0.1431
     46 H11         4.1096    0.2116    4.4602 H         1 <0>         0.4265
     47 H12         6.1308   -0.9149    5.2684 H         1 <0>         0.0827
     48 H13         6.0463   -1.7196    6.8538 H         1 <0>         0.1062
     49 H14         5.1675   -2.3990    5.4630 H         1 <0>         0.0827
     50 H15         3.8471    1.2579    7.2488 H         1 <0>         0.0822
     51 H16         5.2752    0.4159    7.8967 H         1 <0>         0.1068
     52 H17         5.3596    1.2206    6.3112 H         1 <0>         0.0822
     53 H18         3.0444   -2.3467    6.7790 H         1 <0>         0.0825
     54 H19         3.9232   -1.6673    8.1698 H         1 <0>         0.1062
     55 H20         2.4950   -0.8253    7.5220 H         1 <0>         0.0828
     56 H21        -1.7376   -0.2390   -1.7947 H         1 <0>         0.1558
     57 H22         1.5883   -2.9147   -5.7595 H         1 <0>         0.3979
     58 H23         3.1594   -3.1110   -5.1975 H         1 <0>         0.4094
     59 H24        -4.0630    0.4209   -2.3100 H         1 <0>         0.1916
     60 H25        -2.7894   -2.2295   -6.3818 H         1 <0>         0.1600
     61 H26        -4.4253   -2.6821   -8.1127 H         1 <0>         0.1615
     62 H27        -6.7513   -1.8396   -7.8846 H         1 <0>         0.1539
     63 H28        -7.3882   -0.5561   -5.8981 H         1 <0>         0.1620
     64 H29         2.7094    0.2461    5.3281 H         1 <0>         0.4263
@<TRIPOS>BOND
     1    1    2 1
     2    1   37 1
     3    1   38 1
     4    1   39 1
     5    2    3 1
     6    2    4 1
     7    2   19 1
     8    4    9 ar
     9    4    5 ar
    10    5    6 ar
    11    5   40 1
    12    6    7 ar
    13    6   41 1
    14    7    8 ar
    15    7   13 1
    16    8    9 ar
    17    8   42 1
    18    9   10 1
    19   10   11 1
    20   10   12 1
    21   10   43 1
    22   13   14 1
    23   13   44 1
    24   13   45 1
    25   14   15 1
    26   14   46 1
    27   14   64 1
    28   15   16 1
    29   15   17 1
    30   15   18 1
    31   16   47 1
    32   16   48 1
    33   16   49 1
    34   17   50 1
    35   17   51 1
    36   17   52 1
    37   18   53 1
    38   18   54 1
    39   18   55 1
    40   19   20 1
    41   20   24 2
    42   20   21 1
    43   21   22 2
    44   21   56 1
    45   22   23 1
    46   22   28 1
    47   23   24 1
    48   24   25 1
    49   25   26 2
    50   25   27 am
    51   27   57 1
    52   27   58 1
    53   28   32 1
    54   28   29 2
    55   29   30 1
    56   29   59 1
    57   30   31 2
    58   31   36 1
    59   31   32 1
    60   32   33 1
    61   33   34 2
    62   33   60 1
    63   34   35 1
    64   34   61 1
    65   35   36 2
    66   35   62 1
    67   36   63 1
@<TRIPOS>MOLECULE
ZINC64801747
   59    63     0     0     0
SMALL
USER_CHARGES

@<TRIPOS>ATOM
      1 C1          2.2573   -5.1407    2.8229 C.3       1 <0>        -0.1694
      2 C2          1.7813   -4.0800    1.8283 C.3       1 <0>         0.0874
      3 N1          1.9687   -4.5731    0.4616 N.pl3     1 <0>        -0.6729
      4 C3          1.6076   -3.7821   -0.6151 C.ar      1 <0>         0.6556
      5 N2          1.0988   -2.5793   -0.3911 N.ar      1 <0>        -0.5739
      6 C4          0.7412   -1.7931   -1.3958 C.ar      1 <0>         0.2456
      7 C5          0.9033   -2.2386   -2.6932 C.ar      1 <0>        -0.2703
      8 C6          1.4421   -3.5105   -2.8984 C.ar      1 <0>         0.5160
      9 N3          1.7841   -4.2441   -1.8436 N.ar      1 <0>        -0.5680
     10 N4          1.6228   -3.9988   -4.1829 N.pl3     1 <0>        -0.5972
     11 C7          2.0487   -5.3190   -4.3768 C.ar      1 <0>         0.1022
     12 C8          1.6629   -6.3111   -3.4850 C.ar      1 <0>        -0.0861
     13 C9          2.0828   -7.6125   -3.6761 C.ar      1 <0>        -0.1135
     14 C10         2.8905   -7.9293   -4.7605 C.ar      1 <0>         0.1587
     15 C11         3.2759   -6.9372   -5.6526 C.ar      1 <0>        -0.1312
     16 C12         2.8520   -5.6367   -5.4641 C.ar      1 <0>        -0.0973
     17 N5          3.3164   -9.2483   -4.9540 N.pl3     1 <0>        -1.0590
     18 S1          3.2565   -9.9246   -6.4644 S.o2      1 <0>         2.6871
     19 O1          3.9532   -9.0416   -7.3327 O.2       1 <0>        -0.9451
     20 O2          3.6215  -11.2896   -6.3130 O.2       1 <0>        -0.9389
     21 C13         1.5706   -9.9080   -6.9761 C.ar      1 <0>        -0.6634
     22 C14         1.1894   -9.1536   -8.0884 C.ar      1 <0>        -0.0393
     23 C15        -0.1013   -9.1040   -8.5292 C.ar      1 <0>        -0.1199
     24 C16        -1.0807   -9.8385   -7.8404 C.ar      1 <0>         0.0005
     25 C17        -2.4399   -9.8721   -8.1934 C.ar      1 <0>        -0.1243
     26 C18        -3.2959  -10.6256   -7.4436 C.ar      1 <0>        -0.0829
     27 C19        -2.8682  -11.3641   -6.3376 C.ar      1 <0>        -0.1108
     28 C20        -1.5580  -11.3533   -5.9684 C.ar      1 <0>        -0.0616
     29 C21        -0.6735  -10.5901   -6.7239 C.ar      1 <0>        -0.1087
     30 C22         0.6472  -10.6347   -6.2889 C.ar      1 <0>         0.0485
     31 C23         0.6946  -11.5406   -5.0826 C.3       1 <0>        -0.1077
     32 C24        -0.7614  -12.0079   -4.8662 C.3       1 <0>        -0.0786
     33 C25         0.1634   -0.4277   -1.1260 C.3       1 <0>        -0.1406
     34 H1          1.6795   -6.0545    2.6839 H         1 <0>         0.0752
     35 H2          3.3136   -5.3495    2.6536 H         1 <0>         0.0755
     36 H3          2.1179   -4.7738    3.8398 H         1 <0>         0.0944
     37 H4          0.7250   -3.8712    1.9976 H         1 <0>         0.0854
     38 H5          2.3591   -3.1663    1.9673 H         1 <0>         0.0854
     39 H6          2.3460   -5.4540    0.3112 H         1 <0>         0.4412
     40 H7          0.6195   -1.6174   -3.5299 H         1 <0>         0.1858
     41 H8          1.4543   -3.4262   -4.9475 H         1 <0>         0.4384
     42 H9          1.0348   -6.0646   -2.6417 H         1 <0>         0.1380
     43 H10         1.7833   -8.3839   -2.9821 H         1 <0>         0.1377
     44 H11         3.9041   -7.1836   -6.4958 H         1 <0>         0.1682
     45 H12         3.1484   -4.8659   -6.1601 H         1 <0>         0.1409
     46 H13         3.6468   -9.7664   -4.2034 H         1 <0>         0.4306
     47 H14         1.9428   -8.5895   -8.6181 H         1 <0>         0.1432
     48 H15        -0.3650   -8.5103   -9.3919 H         1 <0>         0.1398
     49 H16        -2.8011   -9.3114   -9.0428 H         1 <0>         0.1362
     50 H17        -4.3410  -10.6516   -7.7148 H         1 <0>         0.1311
     51 H18        -3.5808  -11.9464   -5.7723 H         1 <0>         0.1309
     52 H19         1.3494  -12.3907   -5.2741 H         1 <0>         0.1152
     53 H20         1.0380  -10.9877   -4.2083 H         1 <0>         0.0969
     54 H21        -1.1281  -11.6845   -3.8919 H         1 <0>         0.0948
     55 H22        -0.8194  -13.0930   -4.9513 H         1 <0>         0.0978
     56 H23         0.9689    0.3053   -1.0812 H         1 <0>         0.1188
     57 H24        -0.5268   -0.1606   -1.9262 H         1 <0>         0.1196
     58 H25        -0.3698   -0.4402   -0.1754 H         1 <0>         0.0992
     59 H26         0.9862   -2.2702    0.5214 H         1 <0>         0.4387
@<TRIPOS>BOND
     1    1    2 1
     2    1   34 1
     3    1   35 1
     4    1   36 1
     5    2    3 1
     6    2   37 1
     7    2   38 1
     8    3    4 1
     9    3   39 1
    10    4    9 ar
    11    4    5 ar
    12    5    6 ar
    13    5   59 1
    14    6    7 ar
    15    6   33 1
    16    7    8 ar
    17    7   40 1
    18    8    9 ar
    19    8   10 1
    20   10   11 1
    21   10   41 1
    22   11   16 ar
    23   11   12 ar
    24   12   13 ar
    25   12   42 1
    26   13   14 ar
    27   13   43 1
    28   14   15 ar
    29   14   17 1
    30   15   16 ar
    31   15   44 1
    32   16   45 1
    33   17   18 1
    34   17   46 1
    35   18   19 2
    36   18   20 2
    37   18   21 1
    38   21   30 ar
    39   21   22 ar
    40   22   23 ar
    41   22   47 1
    42   23   24 ar
    43   23   48 1
    44   24   29 ar
    45   24   25 ar
    46   25   26 ar
    47   25   49 1
    48   26   27 ar
    49   26   50 1
    50   27   28 ar
    51   27   51 1
    52   28   32 1
    53   28   29 ar
    54   29   30 ar
    55   30   31 1
    56   31   32 1
    57   31   52 1
    58   31   53 1
    59   32   54 1
    60   32   55 1
    61   33   56 1
    62   33   57 1
    63   33   58 1
@<TRIPOS>MOLECULE
ZINC13644401
   61    64     0     0     0
SMALL
USER_CHARGES
4-[(2-carbamimidoyl-1,3,4,5-tetrahydro-2-benzazepin-8-yl)oxymethyl]-1-(4-pyridyl)piperidine-4-carboxylic acid
@<TRIPOS>ATOM
      1 C1         -1.2399    4.4977    4.9676 C.ar      1 <0>        -0.1966
      2 C2         -2.1951    5.1446    5.7185 C.ar      1 <0>        -0.0770
      3 C3         -3.5457    4.8185    5.6002 C.ar      1 <0>        -0.1148
      4 C4         -3.9095    3.8010    4.7457 C.ar      1 <0>        -0.0889
      5 C5         -2.9537    3.1528    3.9797 C.ar      1 <0>        -0.1469
      6 C6         -1.6176    3.5043    4.0758 C.ar      1 <0>         0.1522
      7 O1         -0.6859    2.8790    3.3091 O.3       1 <0>        -0.2663
      8 C7          0.6712    3.2983    3.4662 C.3       1 <0>         0.0885
      9 C8          1.5675    2.4876    2.5281 C.3       1 <0>        -0.1126
     10 C9          1.1306    2.7165    1.0784 C.3       1 <0>        -0.0909
     11 C10         2.0700    1.9503    0.1422 C.3       1 <0>         0.0579
     12 N1          3.4482    2.4180    0.3379 N.pl3     1 <0>        -0.4678
     13 C11         3.9045    2.1657    1.7107 C.3       1 <0>         0.0281
     14 C12         3.0215    2.9381    2.6933 C.3       1 <0>        -0.0889
     15 C13         4.3085    1.8365   -0.5885 C.ar      1 <0>         0.2547
     16 C14         5.4367    1.1299   -0.1721 C.ar      1 <0>        -0.1911
     17 C15         6.2610    0.5640   -1.1218 C.ar      1 <0>         0.1649
     18 C16         4.9449    1.3589   -2.8430 C.ar      1 <0>         0.1560
     19 C17         4.0682    1.9498   -1.9578 C.ar      1 <0>        -0.1688
     20 C18         1.4528    1.0227    2.8633 C.2       1 <0>         0.4689
     21 O2          2.4326    0.4021    3.2021 O.co2     1 <0>        -0.6347
     22 C19        -5.3320    3.3264    4.6497 C.3       1 <0>         0.1432
     23 N2         -6.2487    4.4576    4.4855 N.pl3     1 <0>        -0.5765
     24 C20        -6.8037    5.0385    5.6956 C.3       1 <0>         0.0949
     25 C21        -5.7612    4.9007    6.8188 C.3       1 <0>        -0.1377
     26 C22        -4.5017    5.6596    6.4122 C.3       1 <0>        -0.0748
     27 C23        -6.5691    4.9474    3.2414 C.cat     1 <0>         0.7393
     28 N3         -6.0256    4.3744    2.1162 N.pl3     1 <0>        -0.8055
     29 H1         -0.1987    4.7656    5.0697 H         1 <0>         0.1312
     30 H2         -1.8932    5.9139    6.4138 H         1 <0>         0.1256
     31 H3         -3.2532    2.3666    3.3025 H         1 <0>         0.1356
     32 H4          0.9843    3.1365    4.4977 H         1 <0>         0.0608
     33 H5          0.7547    4.3576    3.2231 H         1 <0>         0.0557
     34 H6          0.1098    2.3584    0.9451 H         1 <0>         0.0961
     35 H7          1.1765    3.7809    0.8484 H         1 <0>         0.0654
     36 H8          1.7714    2.1225   -0.8919 H         1 <0>         0.0889
     37 H9          2.0132    0.8846    0.3638 H         1 <0>         0.0772
     38 H10         4.9385    2.4944    1.8157 H         1 <0>         0.0857
     39 H11         3.8392    1.0989    1.9248 H         1 <0>         0.1106
     40 H12         3.0971    4.0059    2.4886 H         1 <0>         0.0647
     41 H13         3.3507    2.7382    3.7130 H         1 <0>         0.0863
     42 H14         5.6595    1.0243    0.8793 H         1 <0>         0.1874
     43 H15         7.1346    0.0116   -0.8085 H         1 <0>         0.1935
     44 H16         4.7669    1.4419   -3.9050 H         1 <0>         0.1927
     45 H17         3.2077    2.4930   -2.3196 H         1 <0>         0.1816
     46 H18        -5.4300    2.6582    3.7943 H         1 <0>         0.0981
     47 H19        -5.5910    2.7840    5.5591 H         1 <0>         0.1261
     48 H20        -7.0268    6.0923    5.5284 H         1 <0>         0.0886
     49 H21        -7.7150    4.5089    5.9730 H         1 <0>         0.0990
     50 H22        -6.1600    5.3220    7.7416 H         1 <0>         0.1024
     51 H23        -5.5237    3.8477    6.9701 H         1 <0>         0.0890
     52 H24        -4.7908    6.5302    5.8233 H         1 <0>         0.0697
     53 H25        -3.9913    6.0012    7.3127 H         1 <0>         0.0836
     54 H26        -7.6753    6.3718    2.2951 H         1 <0>         0.4482
     55 H27        -5.4161    3.6244    2.1999 H         1 <0>         0.4391
     56 H28        -6.2516    4.7200    1.2385 H         1 <0>         0.4356
     57 N4          6.0490    0.6598   -2.4629 N.ar      1 <0>        -0.5176
     58 H29         6.6838    0.2307   -3.1464 H         1 <0>         0.4722
     59 O3          0.2625    0.4075    2.7853 O.co2     1 <0>        -0.7314
     60 N5         -7.4070    5.9729    3.1948 N.pl3     1 <0>        -0.8020
     61 H30        -7.7863    6.3659    4.0642 H         1 <0>         0.4519
@<TRIPOS>BOND
     1    1    6 ar
     2    1    2 ar
     3    1   29 1
     4    2    3 ar
     5    2   30 1
     6    3   26 1
     7    3    4 ar
     8    4    5 ar
     9    4   22 1
    10    5    6 ar
    11    5   31 1
    12    6    7 1
    13    7    8 1
    14    8    9 1
    15    8   32 1
    16    8   33 1
    17    9   14 1
    18    9   10 1
    19    9   20 1
    20   10   11 1
    21   10   34 1
    22   10   35 1
    23   11   12 1
    24   11   36 1
    25   11   37 1
    26   12   13 1
    27   12   15 1
    28   13   14 1
    29   13   38 1
    30   13   39 1
    31   14   40 1
    32   14   41 1
    33   15   19 ar
    34   15   16 ar
    35   16   17 ar
    36   16   42 1
    37   17   43 1
    38   17   57 ar
    39   18   19 ar
    40   18   44 1
    41   18   57 ar
    42   19   45 1
    43   20   21 2
    44   20   59 1
    45   22   23 1
    46   22   46 1
    47   22   47 1
    48   23   24 1
    49   23   27 1
    50   24   25 1
    51   24   48 1
    52   24   49 1
    53   25   26 1
    54   25   50 1
    55   25   51 1
    56   26   52 1
    57   26   53 1
    58   27   28 1
    59   27   60 2
    60   28   55 1
    61   28   56 1
    62   54   60 1
    63   57   58 1
    64   60   61 1
@<TRIPOS>MOLECULE
ZINC28656318
   53    57     0     0     0
SMALL
USER_CHARGES

@<TRIPOS>ATOM
      1 C1         -0.0184    1.5028    0.0103 C.3       1 <0>        -0.1074
      2 C2          0.0021   -0.0041    0.0020 C.ar      1 <0>         0.1420
      3 C3          0.0055   -0.6791   -1.2047 C.ar      1 <0>        -0.1683
      4 C4          0.0244   -2.0675   -1.2099 C.ar      1 <0>        -0.0633
      5 C5          0.0392   -2.7328    0.0024 C.ar      1 <0>        -0.1730
      6 C6          0.0347   -1.9886    1.1844 C.ar      1 <0>         0.1981
      7 N1          0.0218   -0.6596    1.1445 N.ar      1 <0>        -0.4559
      8 C7          0.0503   -2.6820    2.4864 C.2       1 <0>         0.0357
      9 C8          0.5116   -2.1797    3.6902 C.2       1 <0>         0.1018
     10 N2          0.3399   -3.1391    4.6177 N.2       1 <0>        -0.4535
     11 C9         -0.1941   -4.1920    4.0636 C.2       1 <0>         0.2102
     12 N3         -0.3969   -3.9577    2.7499 N.pl3     1 <0>        -0.5446
     13 H1         -0.7841   -4.5747    2.1092 H         1 <0>         0.4249
     14 C10        -0.5367   -5.4723    4.7810 C.3       1 <0>         0.2135
     15 N4          0.6488   -6.3310    4.8403 N.pl3     1 <0>        -0.7429
     16 C11         0.5762   -7.5800    5.4622 C.ar      1 <0>         0.2111
     17 C12        -0.6224   -8.0104    6.0197 C.ar      1 <0>        -0.1717
     18 C13        -0.6994   -9.2452    6.6356 C.ar      1 <0>        -0.0772
     19 C14         0.4132  -10.0595    6.7013 C.ar      1 <0>        -0.1434
     20 C15         1.6213   -9.6368    6.1446 C.ar      1 <0>        -0.0917
     21 C16         1.6979   -8.3927    5.5183 C.ar      1 <0>        -0.1303
     22 C17         2.8147  -10.5071    6.2141 C.2       1 <0>         0.5621
     23 O1          3.8658  -10.1370    5.7287 O.2       1 <0>        -0.5390
     24 N5          2.7369  -11.7106    6.8156 N.am      1 <0>        -0.8498
     25 C18         1.0885   -0.8340    3.9161 C.ar      1 <0>         0.0068
     26 C19         1.8613   -0.2296    2.9248 C.ar      1 <0>        -0.0522
     27 C20         2.3978    1.0236    3.1365 C.ar      1 <0>        -0.1047
     28 C21         2.1711    1.6866    4.3335 C.ar      1 <0>         0.0394
     29 C22         1.3992    1.0876    5.3278 C.ar      1 <0>         0.0247
     30 C23         0.8552   -0.1666    5.1182 C.ar      1 <0>        -0.0683
     31 O2          1.3281    1.9361    6.3950 O.3       1 <0>        -0.3087
     32 C24         2.3982    2.8808    6.2069 C.3       1 <0>         0.2133
     33 O3          2.5823    2.9098    4.7793 O.3       1 <0>        -0.3095
     34 H2          1.0042    1.8801    0.0026 H         1 <0>         0.0824
     35 H3         -0.5455    1.8639   -0.8728 H         1 <0>         0.0775
     36 H4         -0.5286    1.8543    0.9071 H         1 <0>         0.0805
     37 H5         -0.0067   -0.1311   -2.1353 H         1 <0>         0.1393
     38 H6          0.0270   -2.6159   -2.1403 H         1 <0>         0.1396
     39 H7          0.0536   -3.8122    0.0348 H         1 <0>         0.1295
     40 H8         -0.8705   -5.2435    5.7931 H         1 <0>         0.0985
     41 H9         -1.3325   -5.9881    4.2437 H         1 <0>         0.0803
     42 H10         1.4841   -6.0325    4.4478 H         1 <0>         0.4058
     43 H11        -1.4962   -7.3775    5.9718 H         1 <0>         0.1267
     44 H12        -1.6332   -9.5740    7.0673 H         1 <0>         0.1298
     45 H13         0.3489  -11.0236    7.1837 H         1 <0>         0.1235
     46 H14         2.6290   -8.0621    5.0822 H         1 <0>         0.1344
     47 H15         1.8981  -12.0059    7.2030 H         1 <0>         0.4021
     48 H16         3.5198  -12.2815    6.8612 H         1 <0>         0.4058
     49 H17         2.0399   -0.7428    1.9915 H         1 <0>         0.1289
     50 H18         2.9966    1.4897    2.3679 H         1 <0>         0.1340
     51 H19         0.2535   -0.6301    5.8860 H         1 <0>         0.1377
     52 H20         2.1096    3.8649    6.5760 H         1 <0>         0.1313
     53 H21         3.3053    2.5356    6.7030 H         1 <0>         0.0840
@<TRIPOS>BOND
     1    1    2 1
     2    1   34 1
     3    1   35 1
     4    1   36 1
     5    2    7 ar
     6    2    3 ar
     7    3    4 ar
     8    3   37 1
     9    4    5 ar
    10    4   38 1
    11    5    6 ar
    12    5   39 1
    13    6    7 ar
    14    6    8 1
    15    8   12 1
    16    8    9 2
    17    9   10 1
    18    9   25 1
    19   10   11 2
    20   11   12 1
    21   11   14 1
    22   12   13 1
    23   14   15 1
    24   14   40 1
    25   14   41 1
    26   15   16 1
    27   15   42 1
    28   16   21 ar
    29   16   17 ar
    30   17   18 ar
    31   17   43 1
    32   18   19 ar
    33   18   44 1
    34   19   20 ar
    35   19   45 1
    36   20   21 ar
    37   20   22 1
    38   21   46 1
    39   22   23 2
    40   22   24 am
    41   24   47 1
    42   24   48 1
    43   25   30 ar
    44   25   26 ar
    45   26   27 ar
    46   26   49 1
    47   27   28 ar
    48   27   50 1
    49   28   33 1
    50   28   29 ar
    51   29   30 ar
    52   29   31 1
    53   30   51 1
    54   31   32 1
    55   32   33 1
    56   32   52 1
    57   32   53 1
@<TRIPOS>MOLECULE
ZINC40794046
   58    62     0     0     0
SMALL
USER_CHARGES

@<TRIPOS>ATOM
      1 C1          1.9963   -2.8633    4.3157 C.ar      1 <0>        -0.1748
      2 C2          3.2359   -2.2585    4.4300 C.ar      1 <0>        -0.0088
      3 C3          3.8979   -1.8757    3.2575 C.ar      1 <0>        -0.1890
      4 C4          3.2847   -2.1180    2.0274 C.ar      1 <0>         0.1394
      5 N1          2.1035   -2.6968    1.9706 N.ar      1 <0>        -0.4829
      6 C5          1.4563   -3.0682    3.0590 C.ar      1 <0>         0.1327
      7 C6          5.2240   -1.2253    3.3211 C.2       1 <0>         0.5695
      8 O1          5.7486   -1.0188    4.3980 O.2       1 <0>        -0.5334
      9 N2          5.8513   -0.8614    2.1851 N.am      1 <0>        -0.5086
     10 N3          7.1080   -0.2451    2.2454 N.pl3     1 <0>        -0.5055
     11 C7          7.7549    0.1302    1.0740 C.ar      1 <0>         0.3952
     12 C8          9.0100    0.7398    1.1213 C.ar      1 <0>         0.0817
     13 C9          9.6155    1.0961   -0.0847 C.ar      1 <0>         0.3482
     14 N4          8.9783    0.8431   -1.2255 N.ar      1 <0>        -0.5283
     15 C10         7.7940    0.2657   -1.2261 C.ar      1 <0>         0.3104
     16 N5          7.1900   -0.0910   -0.1105 N.ar      1 <0>        -0.5448
     17 N6         10.8643    1.7061   -0.0941 N.pl3     1 <0>        -0.6534
     18 C11        10.9946    3.1650    0.0428 C.3       1 <0>         0.1234
     19 C12        11.8969    3.6798   -1.0835 C.3       1 <0>        -0.0225
     20 N7         13.1723    2.9525   -1.0589 N.4       1 <0>        -0.3792
     21 C13        12.9438    1.5323   -1.3537 C.3       1 <0>        -0.0288
     22 C14        12.0937    0.9105   -0.2351 C.3       1 <0>         0.1253
     23 C15        14.0774    3.5205   -2.0668 C.3       1 <0>         0.0505
     24 C16        15.4270    2.8584   -1.9602 C.ar      1 <0>        -0.1563
     25 C17        16.3911    3.3883   -1.1229 C.ar      1 <0>        -0.0771
     26 C18        17.6303    2.7842   -1.0213 C.ar      1 <0>        -0.1003
     27 C19        17.9092    1.6455   -1.7595 C.ar      1 <0>         0.0725
     28 C20        16.9380    1.1117   -2.6030 C.ar      1 <0>         0.0402
     29 C21        15.6963    1.7192   -2.6954 C.ar      1 <0>        -0.0836
     30 O2         17.4511    0.0034   -3.2126 O.3       1 <0>        -0.3010
     31 C22        18.8781    0.0987   -3.0459 C.3       1 <0>         0.2113
     32 O3         19.0306    0.8715   -1.8406 O.3       1 <0>        -0.2984
     33 N8          9.6457    0.9882    2.3490 N.pl3     1 <0>        -0.8617
     34 H1          1.4583   -3.1759    5.1984 H         1 <0>         0.1499
     35 H2          3.6808   -2.0860    5.3988 H         1 <0>         0.1510
     36 H3          3.7832   -1.8279    1.1143 H         1 <0>         0.1584
     37 H4          0.4893   -3.5403    2.9669 H         1 <0>         0.1681
     38 H5          5.4327   -1.0262    1.3257 H         1 <0>         0.4349
     39 H6          7.5267   -0.0803    3.1048 H         1 <0>         0.4401
     40 H7          7.3051    0.0751   -2.1700 H         1 <0>         0.2027
     41 H8         10.0115    3.6293   -0.0343 H         1 <0>         0.1161
     42 H9         11.4411    3.4039    1.0080 H         1 <0>         0.0829
     43 H10        11.4063    3.5207   -2.0438 H         1 <0>         0.1361
     44 H11        12.0829    4.7445   -0.9423 H         1 <0>         0.1390
     45 H12        12.4215    1.4382   -2.3058 H         1 <0>         0.1365
     46 H13        13.9012    1.0145   -1.4115 H         1 <0>         0.1362
     47 H14        12.6493    0.9256    0.7025 H         1 <0>         0.0826
     48 H15        11.8375   -0.1164   -0.4960 H         1 <0>         0.1151
     49 H16        13.6665    3.3496   -3.0618 H         1 <0>         0.1382
     50 H17        14.1840    4.5919   -1.8969 H         1 <0>         0.1423
     51 H18        16.1757    4.2763   -0.5472 H         1 <0>         0.1475
     52 H19        18.3815    3.2003   -0.3664 H         1 <0>         0.1498
     53 H20        14.9397    1.3048   -3.3453 H         1 <0>         0.1444
     54 H21        19.3165   -0.8917   -2.9238 H         1 <0>         0.1446
     55 H22        19.3288    0.6166   -3.8925 H         1 <0>         0.0976
     56 H23         9.1767    0.8186    3.1810 H         1 <0>         0.3998
     57 H24        10.5536    1.3292    2.3647 H         1 <0>         0.4035
     58 H25        13.5914    3.0419   -0.1454 H         1 <0>         0.4206
@<TRIPOS>BOND
     1    1    6 ar
     2    1    2 ar
     3    1   34 1
     4    2    3 ar
     5    2   35 1
     6    3    4 ar
     7    3    7 1
     8    4    5 ar
     9    4   36 1
    10    5    6 ar
    11    6   37 1
    12    7    8 2
    13    7    9 am
    14    9   10 1
    15    9   38 1
    16   10   11 1
    17   10   39 1
    18   11   16 ar
    19   11   12 ar
    20   12   13 ar
    21   12   33 1
    22   13   14 ar
    23   13   17 1
    24   14   15 ar
    25   15   16 ar
    26   15   40 1
    27   17   22 1
    28   17   18 1
    29   18   19 1
    30   18   41 1
    31   18   42 1
    32   19   20 1
    33   19   43 1
    34   19   44 1
    35   20   21 1
    36   20   23 1
    37   20   58 1
    38   21   22 1
    39   21   45 1
    40   21   46 1
    41   22   47 1
    42   22   48 1
    43   23   24 1
    44   23   49 1
    45   23   50 1
    46   24   29 ar
    47   24   25 ar
    48   25   26 ar
    49   25   51 1
    50   26   27 ar
    51   26   52 1
    52   27   32 1
    53   27   28 ar
    54   28   29 ar
    55   28   30 1
    56   29   53 1
    57   30   31 1
    58   31   32 1
    59   31   54 1
    60   31   55 1
    61   33   56 1
    62   33   57 1
@<TRIPOS>MOLECULE
ZINC20874770
   58    59     0     0     0
SMALL
USER_CHARGES

@<TRIPOS>ATOM
      1 C1         -0.0187    1.5258    0.0104 C.3       1 <0>        -0.1600
      2 C2          0.0021   -0.0041    0.0020 C.3       1 <0>         0.0530
      3 O1         -1.3386   -0.4987    0.0122 O.3       1 <0>        -0.2879
      4 C3         -1.4984   -1.8492    0.0064 C.ar      1 <0>         0.1320
      5 C4         -0.3890   -2.6797   -0.0029 C.ar      1 <0>        -0.1676
      6 C5         -0.5528   -4.0523   -0.0092 C.ar      1 <0>        -0.1441
      7 C6         -1.8221   -4.6003   -0.0063 C.ar      1 <0>        -0.0877
      8 C7         -2.9337   -3.7773    0.0030 C.ar      1 <0>        -0.0864
      9 C8         -2.7759   -2.3999    0.0157 C.ar      1 <0>         0.1416
     10 O2         -3.8677   -1.5889    0.0305 O.3       1 <0>        -0.3081
     11 C9         -4.4006   -1.1952   -1.2356 C.3       1 <0>         0.1167
     12 C10        -5.5980   -0.3054   -1.0219 C.ar      1 <0>        -0.1132
     13 C11        -6.8603   -0.8588   -0.9166 C.ar      1 <0>        -0.0861
     14 C12        -7.9587   -0.0426   -0.7206 C.ar      1 <0>        -0.1242
     15 C13        -7.7946    1.3270   -0.6295 C.ar      1 <0>        -0.0631
     16 C14        -6.5321    1.8803   -0.7338 C.ar      1 <0>        -0.1243
     17 C15        -5.4333    1.0637   -0.9256 C.ar      1 <0>        -0.0859
     18 C16        -8.9920    2.2168   -0.4167 C.3       1 <0>        -0.1237
     19 Br1        -4.6682   -4.5306    0.0058 Br        1 <0>         0.0116
     20 C17         0.6550   -4.9535   -0.0199 C.3       1 <0>         0.0521
     21 N1          1.0543   -5.2535    1.3616 N.4       1 <0>        -0.5060
     22 C18         2.2317   -6.1319    1.3513 C.3       1 <0>        -0.0372
     23 C19         2.6476   -6.4444    2.7901 C.3       1 <0>        -0.0372
     24 N2          3.8249   -7.3228    2.7798 N.4       1 <0>        -0.5026
     25 C20         4.2242   -7.6228    4.1613 C.3       1 <0>        -0.0037
     26 C21         5.4505   -8.5377    4.1505 C.3       1 <0>         0.0415
     27 O3          6.5597   -7.8410    3.5792 O.3       1 <0>        -0.5858
     28 H1          1.0039    1.9031    0.0027 H         1 <0>         0.0873
     29 H2         -0.5459    1.8868   -0.8726 H         1 <0>         0.0740
     30 H3         -0.5289    1.8773    0.9072 H         1 <0>         0.0736
     31 H4          0.5123   -0.3556   -0.8948 H         1 <0>         0.0669
     32 H5          0.5293   -0.3651    0.8851 H         1 <0>         0.0627
     33 H6          0.6037   -2.2544   -0.0056 H         1 <0>         0.1466
     34 H7         -1.9459   -5.6731   -0.0116 H         1 <0>         0.1476
     35 H8         -3.6402   -0.6524   -1.7970 H         1 <0>         0.0684
     36 H9         -4.7016   -2.0812   -1.7946 H         1 <0>         0.0681
     37 H10        -6.9886   -1.9288   -0.9879 H         1 <0>         0.1223
     38 H11        -8.9450   -0.4749   -0.6391 H         1 <0>         0.1279
     39 H12        -6.4039    2.9503   -0.6630 H         1 <0>         0.1278
     40 H13        -4.4465    1.4957   -1.0034 H         1 <0>         0.1229
     41 H14        -9.1610    2.3493    0.6519 H         1 <0>         0.0763
     42 H15        -8.8103    3.1871   -0.8789 H         1 <0>         0.0713
     43 H16        -9.8709    1.7577   -0.8694 H         1 <0>         0.0713
     44 H17         0.4115   -5.8814   -0.5373 H         1 <0>         0.1498
     45 H18         1.4759   -4.4548   -0.5352 H         1 <0>         0.1478
     46 H19         1.2798   -4.3945    1.8406 H         1 <0>         0.4363
     47 H20         1.9882   -7.0598    0.8338 H         1 <0>         0.1567
     48 H21         3.0526   -5.6332    0.8360 H         1 <0>         0.1561
     49 H22         2.8911   -5.5165    3.3076 H         1 <0>         0.1548
     50 H23         1.8267   -6.9431    3.3054 H         1 <0>         0.1555
     51 H24         3.5995   -8.1818    2.3008 H         1 <0>         0.4356
     52 H25         4.4678   -6.6949    4.6787 H         1 <0>         0.1455
     53 H26         3.4034   -8.1215    4.6766 H         1 <0>         0.1514
     54 H27         5.6932   -8.8321    5.1715 H         1 <0>         0.1050
     55 H28         5.2354   -9.4266    3.5574 H         1 <0>         0.0771
     56 H29         7.3735   -8.3618    3.5402 H         1 <0>         0.4185
     57 H30         0.2945   -5.7151    1.8387 H         1 <0>         0.4374
     58 H31         4.5848   -6.8612    2.3027 H         1 <0>         0.4437
@<TRIPOS>BOND
     1    1    2 1
     2    1   28 1
     3    1   29 1
     4    1   30 1
     5    2    3 1
     6    2   31 1
     7    2   32 1
     8    3    4 1
     9    4    9 ar
    10    4    5 ar
    11    5    6 ar
    12    5   33 1
    13    6    7 ar
    14    6   20 1
    15    7    8 ar
    16    7   34 1
    17    8    9 ar
    18    8   19 1
    19    9   10 1
    20   10   11 1
    21   11   12 1
    22   11   35 1
    23   11   36 1
    24   12   17 ar
    25   12   13 ar
    26   13   14 ar
    27   13   37 1
    28   14   15 ar
    29   14   38 1
    30   15   16 ar
    31   15   18 1
    32   16   17 ar
    33   16   39 1
    34   17   40 1
    35   18   41 1
    36   18   42 1
    37   18   43 1
    38   20   21 1
    39   20   44 1
    40   20   45 1
    41   21   22 1
    42   21   46 1
    43   21   57 1
    44   22   23 1
    45   22   47 1
    46   22   48 1
    47   23   24 1
    48   23   49 1
    49   23   50 1
    50   24   25 1
    51   24   51 1
    52   24   58 1
    53   25   26 1
    54   25   52 1
    55   25   53 1
    56   26   27 1
    57   26   54 1
    58   26   55 1
    59   27   56 1
@<TRIPOS>MOLECULE
ZINC64002465
   57    60     0     0     0
SMALL
USER_CHARGES

@<TRIPOS>ATOM
      1 C1         -1.5922    1.0937   -0.4693 C.3       1 <0>        -0.1382
      2 C2         -1.2692   -0.3743   -0.3603 C.ar      1 <0>        -0.0304
      3 C3         -1.1310   -1.1383   -1.5040 C.ar      1 <0>        -0.1094
      4 C4         -0.8348   -2.4848   -1.4041 C.ar      1 <0>        -0.0879
      5 C5         -0.6764   -3.0672   -0.1604 C.ar      1 <0>        -0.1800
      6 C6         -0.8137   -2.3030    0.9832 C.ar      1 <0>        -0.0913
      7 C7         -1.1057   -0.9555    0.8832 C.ar      1 <0>        -0.1178
      8 C8         -0.3544   -4.5354   -0.0514 C.3       1 <0>         0.0396
      9 N1          1.1031   -4.7183   -0.0506 N.4       1 <0>        -0.3860
     10 C9          1.6491   -4.3312   -1.3608 C.3       1 <0>        -0.0300
     11 C10         3.1753   -4.2850   -1.2648 C.3       1 <0>         0.0834
     12 N2          3.6747   -5.5284   -0.6832 N.am      1 <0>        -0.7040
     13 C11         2.8903   -6.3722   -0.0030 C.2       1 <0>         0.5208
     14 O1          3.3851   -7.3733    0.4702 O.2       1 <0>        -0.5041
     15 C12         1.4214   -6.1298    0.1988 C.3       1 <0>         0.0287
     16 H1          0.8539   -6.7554   -0.4901 H         1 <0>         0.1854
     17 C13         1.0409   -6.4891    1.6365 C.3       1 <0>        -0.1621
     18 C14         1.9030   -5.7079    2.5945 C.2       1 <0>         0.5259
     19 O2          2.7210   -4.9197    2.1696 O.2       1 <0>        -0.4972
     20 N3          1.7649   -5.8852    3.9234 N.am      1 <0>        -0.7538
     21 C15         2.6030   -5.1258    4.8547 C.3       1 <0>         0.0994
     22 C16         2.2477   -5.5123    6.2918 C.3       1 <0>         0.2456
     23 H2          2.8747   -4.9615    6.9929 H         1 <0>         0.2590
     24 N4          2.4259   -6.9570    6.4839 N.pl3     1 <0>        -0.4610
     25 C17         1.2688   -7.4532    6.8134 C.ar      1 <0>         0.3226
     26 C18         0.8198   -8.8169    7.1278 C.ar      1 <0>        -0.1136
     27 C19        -0.4723   -9.0360    7.4418 C.ar      1 <0>         0.0329
     28 C20        -1.4281   -8.0032    7.4841 C.ar      1 <0>         0.0970
     29 C21        -1.1213   -6.7172    7.2124 C.ar      1 <0>        -0.1572
     30 C22         0.2582   -6.3610    6.8576 C.ar      1 <0>         0.3243
     31 N5          0.8307   -5.2301    6.5539 N.pl3     1 <0>        -0.4789
     32 Cl1        -3.0660   -8.3994    7.9016 Cl        1 <0>         0.1087
     33 H3         -0.6663    1.6662   -0.5254 H         1 <0>         0.0879
     34 H4         -2.1833    1.2699   -1.3679 H         1 <0>         0.0828
     35 H5         -2.1604    1.4067    0.4066 H         1 <0>         0.0789
     36 H6         -1.2547   -0.6833   -2.4756 H         1 <0>         0.1434
     37 H7         -0.7274   -3.0819   -2.2976 H         1 <0>         0.1370
     38 H8         -0.6903   -2.7581    1.9549 H         1 <0>         0.1170
     39 H9         -1.2094   -0.3577    1.7766 H         1 <0>         0.1356
     40 H10        -0.7708   -4.9309    0.8750 H         1 <0>         0.1291
     41 H11        -0.7867   -5.0661   -0.8997 H         1 <0>         0.1470
     42 H12         1.3522   -5.0639   -2.1112 H         1 <0>         0.1473
     43 H13         1.2705   -3.3473   -1.6380 H         1 <0>         0.1598
     44 H14         3.5970   -4.1565   -2.2617 H         1 <0>         0.1359
     45 H15         3.4733   -3.4459   -0.6361 H         1 <0>         0.1021
     46 H16         4.6121   -5.7514   -0.7948 H         1 <0>         0.4311
     47 H17        -0.0071   -6.2429    1.8073 H         1 <0>         0.1385
     48 H18         1.1943   -7.5562    1.7971 H         1 <0>         0.1621
     49 H19         1.1107   -6.5156    4.2632 H         1 <0>         0.3970
     50 H20         3.6524   -5.3523    4.6664 H         1 <0>         0.1576
     51 H21         2.4301   -4.0591    4.7120 H         1 <0>         0.1568
     52 H22         1.5208   -9.6382    7.1069 H         1 <0>         0.2212
     53 H23        -0.7868  -10.0436    7.6703 H         1 <0>         0.2175
     54 H24        -1.8853   -5.9552    7.2563 H         1 <0>         0.2167
     55 H25         3.2545   -7.4512    6.3833 H         1 <0>         0.5017
     56 H26         0.4007   -4.3618    6.5094 H         1 <0>         0.4990
     57 H27         1.5151   -4.1463    0.6713 H         1 <0>         0.4264
@<TRIPOS>BOND
     1    1    2 1
     2    1   33 1
     3    1   34 1
     4    1   35 1
     5    2    7 ar
     6    2    3 ar
     7    3    4 ar
     8    3   36 1
     9    4    5 ar
    10    4   37 1
    11    5    6 ar
    12    5    8 1
    13    6    7 ar
    14    6   38 1
    15    7   39 1
    16    8    9 1
    17    8   40 1
    18    8   41 1
    19    9   15 1
    20    9   10 1
    21    9   57 1
    22   10   11 1
    23   10   42 1
    24   10   43 1
    25   11   12 1
    26   11   44 1
    27   11   45 1
    28   12   13 am
    29   12   46 1
    30   13   14 2
    31   13   15 1
    32   15   16 1
    33   15   17 1
    34   17   18 1
    35   17   47 1
    36   17   48 1
    37   18   19 2
    38   18   20 am
    39   20   21 1
    40   20   49 1
    41   21   22 1
    42   21   50 1
    43   21   51 1
    44   22   23 1
    45   22   31 1
    46   22   24 1
    47   24   25 2
    48   24   55 1
    49   25   30 ar
    50   25   26 ar
    51   26   27 ar
    52   26   52 1
    53   27   28 ar
    54   27   53 1
    55   28   29 ar
    56   28   32 1
    57   29   30 ar
    58   29   54 1
    59   30   31 2
    60   31   56 1
@<TRIPOS>MOLECULE
ZINC09975288
   49    52     0     0     0
SMALL
USER_CHARGES
2-[6-amino-8-[(3,4-dihydroxyphenyl)methyleneaminoamino]purin-9-yl]-5-(hydroxymethyl)tetrahydrofuran-3,4-diol
@<TRIPOS>ATOM
      1 C1         -4.4160    3.5287    4.9532 C.ar      1 <0>        -0.0710
      2 C2         -5.6194    3.5698    5.6262 C.ar      1 <0>        -0.1327
      3 C3         -6.4037    2.4301    5.7217 C.ar      1 <0>         0.0944
      4 C4         -5.9821    1.2388    5.1345 C.ar      1 <0>         0.0766
      5 C5         -4.7798    1.1908    4.4548 C.ar      1 <0>        -0.1045
      6 C6         -3.9893    2.3393    4.3580 C.ar      1 <0>        -0.0373
      7 C7         -2.7054    2.2939    3.6346 C.2       1 <0>         0.0911
      8 N1         -1.9725    3.3617    3.5457 N.2       1 <0>        -0.1896
      9 N2         -0.7525    3.3187    2.8583 N.pl3     1 <0>        -0.5224
     10 C8          0.0268    4.4539    2.7637 C.2       1 <0>         0.5945
     11 N3         -0.2743    5.6203    3.2792 N.2       1 <0>        -0.4811
     12 C9          0.7094    6.5077    2.9903 C.ar      1 <0>        -0.0241
     13 C10         0.9219    7.8681    3.2695 C.ar      1 <0>         0.4288
     14 N4          2.0323    8.4417    2.8177 N.ar      1 <0>        -0.5658
     15 C11         2.9210    7.7567    2.1214 C.ar      1 <0>         0.3287
     16 N5          2.7637    6.4808    1.8365 N.ar      1 <0>        -0.5332
     17 C12         1.6843    5.8233    2.2461 C.ar      1 <0>         0.2899
     18 N6          1.2321    4.5305    2.1199 N.pl3     1 <0>        -0.4731
     19 C13         1.9124    3.4382    1.4197 C.3       1 <0>         0.3047
     20 H1          2.9490    3.7065    1.2158 H         1 <0>         0.1332
     21 C14         1.1738    3.0990    0.1060 C.3       1 <0>         0.0711
     22 H2          1.6631    3.5782   -0.7419 H         1 <0>         0.1005
     23 C15         1.2864    1.5618   -0.0018 C.3       1 <0>         0.0437
     24 H3          1.8302    1.2789   -0.9031 H         1 <0>         0.0957
     25 C16         2.0797    1.1541    1.2594 C.3       1 <0>         0.0465
     26 H4          3.1419    1.0711    1.0293 H         1 <0>         0.1000
     27 O1          1.8515    2.2251    2.2011 O.3       1 <0>        -0.3565
     28 C17         1.5496   -0.1681    1.8178 C.3       1 <0>         0.0805
     29 O2          2.3688   -0.5858    2.9117 O.3       1 <0>        -0.5612
     30 O3         -0.0110    0.9628    0.0073 O.3       1 <0>        -0.5443
     31 O4         -0.1966    3.4963    0.1851 O.3       1 <0>        -0.5322
     32 N7         -0.0045    8.5948    3.9996 N.pl3     1 <0>        -0.7430
     33 O5         -6.7538    0.1231    5.2307 O.3       1 <0>        -0.4863
     34 O6         -7.5866    2.4751    6.3902 O.3       1 <0>        -0.4881
     35 H5         -3.8054    4.4168    4.8836 H         1 <0>         0.1458
     36 H6         -5.9501    4.4910    6.0828 H         1 <0>         0.1387
     37 H7         -4.4519    0.2680    3.9993 H         1 <0>         0.1378
     38 H8         -2.3747    1.3724    3.1787 H         1 <0>         0.1191
     39 H9         -0.4554    2.4910    2.4488 H         1 <0>         0.4066
     40 H10         3.8097    8.2616    1.7727 H         1 <0>         0.2052
     41 H11         0.5246   -0.0319    2.1628 H         1 <0>         0.0623
     42 H12         1.5720   -0.9276    1.0364 H         1 <0>         0.0673
     43 H13         2.0905   -1.4191    3.3157 H         1 <0>         0.3875
     44 H14         0.0021   -0.0041    0.0020 H         1 <0>         0.3863
     45 H15        -0.7219    3.2533   -0.5895 H         1 <0>         0.3932
     46 H16        -0.8838    8.5877    3.5234 H         1 <0>         0.3676
     47 H17         0.1534    9.5335    4.1860 H         1 <0>         0.3713
     48 H18        -6.5629   -0.4215    6.0066 H         1 <0>         0.3879
     49 H19        -7.5146    2.2660    7.3316 H         1 <0>         0.3900
@<TRIPOS>BOND
     1    1    6 ar
     2    1    2 ar
     3    1   35 1
     4    2    3 ar
     5    2   36 1
     6    3    4 ar
     7    3   34 1
     8    4    5 ar
     9    4   33 1
    10    5    6 ar
    11    5   37 1
    12    6    7 1
    13    7    8 2
    14    7   38 1
    15    8    9 1
    16    9   10 1
    17    9   39 1
    18   10   18 1
    19   10   11 2
    20   11   12 1
    21   12   17 ar
    22   12   13 ar
    23   13   14 ar
    24   13   32 1
    25   14   15 ar
    26   15   16 ar
    27   15   40 1
    28   16   17 ar
    29   17   18 1
    30   18   19 1
    31   19   20 1
    32   19   27 1
    33   19   21 1
    34   21   22 1
    35   21   23 1
    36   21   31 1
    37   23   24 1
    38   23   25 1
    39   23   30 1
    40   25   26 1
    41   25   27 1
    42   25   28 1
    43   28   29 1
    44   28   41 1
    45   28   42 1
    46   29   43 1
    47   30   44 1
    48   31   45 1
    49   32   46 1
    50   32   47 1
    51   33   48 1
    52   34   49 1
@<TRIPOS>MOLECULE
ZINC22064989
   57    59     0     0     0
SMALL
USER_CHARGES
(2S,3S,4S,5S,6R)-2-[(2S,3S,4R,5S,6R)-4,5-dihydroxy-6-(hydroxymethyl)-2-(4-nitrophenoxy)tetrahydropyran-3-yl]oxy-6-(hydroxymethyl)tetrahydropyran-3,4,5-triol
@<TRIPOS>ATOM
      1 C1         -7.4145    3.9344   -2.9606 C.ar      1 <0>        -0.0171
      2 C2         -6.0648    3.8098   -2.6939 C.ar      1 <0>        -0.1498
      3 C3         -5.3376    4.9131   -2.2713 C.ar      1 <0>         0.1829
      4 C4         -5.9694    6.1379   -2.1125 C.ar      1 <0>        -0.1828
      5 C5         -7.3183    6.2586   -2.3856 C.ar      1 <0>        -0.0119
      6 C6         -8.0407    5.1575   -2.8067 C.ar      1 <0>        -0.0818
      7 N1         -9.4870    5.2881   -3.0926 N.pl3     1 <0>         0.0342
      8 O1        -10.1245    4.3187   -3.4632 O.2       1 <0>        -0.1638
      9 O2        -10.0397    6.3650   -2.9573 O.3       1 <0>        -0.1637
     10 O3         -4.0098    4.7929   -2.0079 O.3       1 <0>        -0.2909
     11 C7         -3.3248    5.9706   -1.5768 C.3       1 <0>         0.2388
     12 H1         -3.8937    6.3962   -0.7370 H         1 <0>         0.0906
     13 C8         -1.8809    5.6164   -1.2113 C.3       1 <0>         0.0888
     14 H2         -1.8418    4.8586   -0.4149 H         1 <0>         0.1120
     15 C9         -1.1367    6.8930   -0.8080 C.3       1 <0>         0.1402
     16 H3         -0.0948    6.6812   -0.5259 H         1 <0>         0.0875
     17 C10        -1.2145    7.9013   -1.9585 C.3       1 <0>         0.0664
     18 H4         -0.6574    7.5511   -2.8400 H         1 <0>         0.0825
     19 C11        -2.6841    8.1672   -2.2952 C.3       1 <0>         0.0798
     20 H5         -3.2290    8.5614   -1.4248 H         1 <0>         0.0825
     21 O4         -3.3249    6.9349   -2.6313 O.3       1 <0>        -0.3819
     22 C12        -2.7697    9.1277   -3.4830 C.3       1 <0>         0.0935
     23 O5         -4.1368    9.4673   -3.7234 O.3       1 <0>        -0.5922
     24 O6         -0.5846    9.1226   -1.5667 O.3       1 <0>        -0.5906
     25 O7         -1.7434    7.4517    0.3590 O.3       1 <0>        -0.5928
     26 O8         -1.2347    5.0229   -2.3392 O.3       1 <0>        -0.3296
     27 C13        -1.3560    3.6003   -2.3966 C.3       1 <0>         0.2674
     28 H6         -2.4235    3.3546   -2.2960 H         1 <0>         0.0867
     29 C14        -0.7378    3.0873   -3.6998 C.3       1 <0>         0.1168
     30 H7         -1.2268    3.5317   -4.5792 H         1 <0>         0.0827
     31 C15        -0.8177    1.5578   -3.7263 C.3       1 <0>         0.0998
     32 H8         -1.8588    1.2080   -3.7882 H         1 <0>         0.0697
     33 C16        -0.1103    0.9990   -2.4879 C.3       1 <0>         0.0695
     34 H9          0.9714    1.1965   -2.5181 H         1 <0>         0.0807
     35 C17        -0.7527    1.5927   -1.2315 C.3       1 <0>         0.0764
     36 H10        -1.8253    1.3544   -1.1799 H         1 <0>         0.0741
     37 O9         -0.6719    3.0184   -1.2850 O.3       1 <0>        -0.3877
     38 C18        -0.0127    1.0858    0.0080 C.3       1 <0>         0.0946
     39 O10        -0.6816    1.5467    1.1837 O.3       1 <0>        -0.5920
     40 O11        -0.2412   -0.4238   -2.4645 O.3       1 <0>        -0.5941
     41 O12        -0.1791    1.0662   -4.9064 O.3       1 <0>        -0.5911
     42 O13         0.6297    3.4954   -3.7727 O.3       1 <0>        -0.5711
     43 H11        -7.9809    3.0759   -3.2900 H         1 <0>         0.1613
     44 H12        -5.5760    2.8543   -2.8147 H         1 <0>         0.1537
     45 H13        -5.4064    6.9973   -1.7797 H         1 <0>         0.1543
     46 H14        -7.8096    7.2129   -2.2664 H         1 <0>         0.1570
     47 H15        -2.1991   10.0408   -3.2580 H         1 <0>         0.0613
     48 H16        -2.3494    8.6437   -4.3770 H         1 <0>         0.0557
     49 H17        -4.3973   10.1523   -4.5437 H         1 <0>         0.4151
     50 H18        -0.5424    9.9692   -2.2677 H         1 <0>         0.4144
     51 H19        -1.3422    8.3770    0.7981 H         1 <0>         0.4306
     52 H20         0.0022   -0.0141    0.0019 H         1 <0>         0.0597
     53 H21         1.0193    1.4665    0.0002 H         1 <0>         0.0563
     54 H22        -0.2927    1.2807    2.1777 H         1 <0>         0.4144
     55 H23         0.2061   -1.0039   -1.6439 H         1 <0>         0.4132
     56 H24        -0.1371   -0.0160   -5.0989 H         1 <0>         0.4248
     57 H25         1.2410    3.2173   -4.6439 H         1 <0>         0.4151
@<TRIPOS>BOND
     1    1    6 ar
     2    1    2 ar
     3    1   43 1
     4    2    3 ar
     5    2   44 1
     6    3    4 ar
     7    3   10 1
     8    4    5 ar
     9    4   45 1
    10    5    6 ar
    11    5   46 1
    12    6    7 1
    13    7    8 2
    14    7    9 1
    15   10   11 1
    16   11   12 1
    17   11   21 1
    18   11   13 1
    19   13   14 1
    20   13   15 1
    21   13   26 1
    22   15   16 1
    23   15   17 1
    24   15   25 1
    25   17   18 1
    26   17   19 1
    27   17   24 1
    28   19   20 1
    29   19   21 1
    30   19   22 1
    31   22   23 1
    32   22   47 1
    33   22   48 1
    34   23   49 1
    35   24   50 1
    36   25   51 1
    37   26   27 1
    38   27   28 1
    39   27   37 1
    40   27   29 1
    41   29   30 1
    42   29   31 1
    43   29   42 1
    44   31   32 1
    45   31   33 1
    46   31   41 1
    47   33   34 1
    48   33   35 1
    49   33   40 1
    50   35   36 1
    51   35   37 1
    52   35   38 1
    53   38   39 1
    54   38   52 1
    55   38   53 1
    56   39   54 1
    57   40   55 1
    58   41   56 1
    59   42   57 1
@<TRIPOS>MOLECULE
ZINC35645750
   57    59     0     0     0
SMALL
USER_CHARGES

@<TRIPOS>ATOM
      1 C1         -0.0167    1.3784    0.0096 C.ar      1 <0>        -0.0215
      2 C2          1.1695    2.0865    0.0021 C.ar      1 <0>        -0.1449
      3 C3          2.3802    1.4093   -0.0131 C.ar      1 <0>         0.1845
      4 C4          2.3963    0.0221   -0.0207 C.ar      1 <0>        -0.1926
      5 C5          1.2074   -0.6814   -0.0132 C.ar      1 <0>        -0.0152
      6 C6          0.0021   -0.0041    0.0020 C.ar      1 <0>        -0.0893
      7 N1         -1.2702   -0.7602    0.0106 N.pl3     1 <0>         0.0405
      8 O1         -2.3247   -0.1690    0.0243 O.2       1 <0>        -0.1654
      9 O2         -1.2550   -1.9691    0.0040 O.3       1 <0>        -0.1668
     10 O3          3.5484    2.1036   -0.0210 O.3       1 <0>        -0.2786
     11 C7          4.7565    1.3405   -0.0366 C.3       1 <0>         0.2134
     12 H1          4.7409    0.6524   -0.8818 H         1 <0>         0.1134
     13 C8          5.9547    2.2842   -0.1688 C.3       1 <0>         0.0789
     14 H2          6.8739    1.7007   -0.2215 H         1 <0>         0.1053
     15 C9          6.0042    3.2080    1.0521 C.3       1 <0>         0.1052
     16 H3          6.8868    3.8448    0.9919 H         1 <0>         0.0997
     17 C10         6.0738    2.3544    2.3221 C.3       1 <0>         0.0899
     18 H4          6.0536    3.0026    3.1982 H         1 <0>         0.0829
     19 C11         4.8709    1.4081    2.3580 C.3       1 <0>         0.0619
     20 H5          3.9509    1.9910    2.4012 H         1 <0>         0.0913
     21 O4          4.8675    0.5989    1.1798 O.3       1 <0>        -0.3587
     22 C12         4.9647    0.5104    3.5934 C.3       1 <0>         0.0791
     23 O5          3.7858   -0.2914    3.6902 O.3       1 <0>        -0.5599
     24 O6          7.2826    1.5924    2.3196 O.3       1 <0>        -0.5486
     25 O7          4.8295    4.0211    1.0842 O.3       1 <0>        -0.3569
     26 C13         4.9610    5.2604    0.3851 C.3       1 <0>         0.2186
     27 H6          5.2745    5.0674   -0.6409 H         1 <0>         0.1239
     28 C14         3.6144    5.9886    0.3790 C.3       1 <0>         0.0709
     29 H7          3.7037    6.9148   -0.1887 H         1 <0>         0.0902
     30 C15         3.2097    6.3092    1.8211 C.3       1 <0>         0.0869
     31 H8          3.0720    5.3812    2.3761 H         1 <0>         0.0777
     32 C16         4.3167    7.1396    2.4779 C.3       1 <0>         0.0900
     33 H9          4.0622    7.3254    3.5213 H         1 <0>         0.0788
     34 C17         5.6362    6.3669    2.4029 C.3       1 <0>         0.1031
     35 H10         5.5447    5.4361    2.9626 H         1 <0>         0.0828
     36 O8          5.9383    6.0740    1.0370 O.3       1 <0>        -0.3634
     37 C18         6.7590    7.2151    3.0034 C.3       1 <0>         0.0871
     38 O9          7.9659    6.4509    3.0399 O.3       1 <0>        -0.5682
     39 O10         4.4513    8.3849    1.7901 O.3       1 <0>        -0.5492
     40 O11         1.9888    7.0518    1.8212 O.3       1 <0>        -0.5620
     41 O12         2.6227    5.1537   -0.2222 O.3       1 <0>        -0.5482
     42 O13         5.8173    3.0671   -1.3563 O.3       1 <0>        -0.5479
     43 H11        -0.9594    1.9052    0.0260 H         1 <0>         0.1568
     44 H12         1.1543    3.1664    0.0077 H         1 <0>         0.1607
     45 H13         3.3375   -0.5074   -0.0330 H         1 <0>         0.1524
     46 H14         1.2194   -1.7613   -0.0191 H         1 <0>         0.1525
     47 H15         5.8379   -0.1363    3.5072 H         1 <0>         0.0586
     48 H16         5.0576    1.1291    4.4859 H         1 <0>         0.0650
     49 H17         3.7765   -0.8866    4.4523 H         1 <0>         0.3847
     50 H18         7.3929    1.0274    3.0966 H         1 <0>         0.3868
     51 H19         6.9102    8.1040    2.3909 H         1 <0>         0.0678
     52 H20         6.4871    7.5135    4.0159 H         1 <0>         0.0614
     53 H21         8.7219    6.9270    3.4098 H         1 <0>         0.3839
     54 H22         3.6494    8.9252    1.7942 H         1 <0>         0.3881
     55 H23         1.2454    6.5866    1.4136 H         1 <0>         0.3931
     56 H24         2.8176    4.9076   -1.1369 H         1 <0>         0.3853
     57 H25         5.7751    2.5448   -2.1690 H         1 <0>         0.3845
@<TRIPOS>BOND
     1    1    6 ar
     2    1    2 ar
     3    1   43 1
     4    2    3 ar
     5    2   44 1
     6    3    4 ar
     7    3   10 1
     8    4    5 ar
     9    4   45 1
    10    5    6 ar
    11    5   46 1
    12    6    7 1
    13    7    8 2
    14    7    9 1
    15   10   11 1
    16   11   12 1
    17   11   21 1
    18   11   13 1
    19   13   14 1
    20   13   15 1
    21   13   42 1
    22   15   16 1
    23   15   17 1
    24   15   25 1
    25   17   18 1
    26   17   19 1
    27   17   24 1
    28   19   20 1
    29   19   21 1
    30   19   22 1
    31   22   23 1
    32   22   47 1
    33   22   48 1
    34   23   49 1
    35   24   50 1
    36   25   26 1
    37   26   27 1
    38   26   36 1
    39   26   28 1
    40   28   29 1
    41   28   30 1
    42   28   41 1
    43   30   31 1
    44   30   32 1
    45   30   40 1
    46   32   33 1
    47   32   34 1
    48   32   39 1
    49   34   35 1
    50   34   36 1
    51   34   37 1
    52   37   38 1
    53   37   51 1
    54   37   52 1
    55   38   53 1
    56   39   54 1
    57   40   55 1
    58   41   56 1
    59   42   57 1
@<TRIPOS>MOLECULE
ZINC43763982
   39    39     0     0     0
SMALL
USER_CHARGES

@<TRIPOS>ATOM
      1 C1          0.3476    1.4117   -0.0513 C.3       1 <0>         0.0595
      2 H1          0.6030    0.3673   -0.2307 H         1 <0>         0.1145
      3 C2         -0.5643    1.5107    1.1733 C.3       1 <0>         0.0705
      4 H2         -1.4753    0.9394    0.9950 H         1 <0>         0.1018
      5 C3          0.1609    0.9456    2.3962 C.3       1 <0>         0.1478
      6 H3          0.4162   -0.0987    2.2168 H         1 <0>         0.1323
      7 C4          1.4396    1.7476    2.6465 C.3       1 <0>         0.1482
      8 H4          1.1843    2.7919    2.8259 H         1 <0>         0.1406
      9 C5          2.3516    1.6486    1.4220 C.3       1 <0>         0.0907
     10 H5          3.2626    2.2199    1.6003 H         1 <0>         0.1215
     11 C6          1.6264    2.2136    0.1990 C.3       1 <0>         0.1284
     12 H6          2.2761    2.1431   -0.6734 H         1 <0>         0.1180
     13 O1          1.2916    3.5828    0.4342 O.3       1 <0>        -0.6833
     14 P1          1.8280    4.7877   -0.4891 P.3       1 <0>         2.3630
     15 S1          3.6472    4.5549   -0.8193 S.2       1 <0>        -1.2255
     16 O2          1.0256    4.7925   -1.8849 O.3       1 <0>        -0.8177
     17 O3          1.5952    6.1891    0.2685 O.3       1 <0>        -0.8190
     18 O4          2.6863    0.2794    1.1868 O.3       1 <0>        -0.5385
     19 O5          2.1170    1.2198    3.7888 O.3       1 <0>        -0.6997
     20 P2          2.5256    2.1201    5.0594 P.3       1 <0>         2.3127
     21 S2          3.2649    3.7262    4.4707 S.2       1 <0>        -1.1788
     22 O6          1.2159    2.4248    5.9448 O.3       1 <0>        -0.8084
     23 O7          3.6054    1.3281    5.9533 O.3       1 <0>        -0.8109
     24 O8         -0.6908    1.0381    3.5399 O.3       1 <0>        -0.6988
     25 P3         -1.2666   -0.2526    4.3111 P.3       1 <0>         2.3235
     26 S3         -1.8735   -1.5001    3.0669 S.2       1 <0>        -1.1934
     27 O9         -0.0989   -0.9095    5.2039 O.3       1 <0>        -0.8111
     28 O10        -2.4857    0.1913    5.2644 O.3       1 <0>        -0.8133
     29 O11        -0.8991    2.8799    1.4084 O.3       1 <0>        -0.5294
     30 O12        -0.3297    1.9395   -1.1935 O.3       1 <0>        -0.5568
     31 H7          0.0705    4.9098   -1.7891 H         1 <0>         0.4315
     32 H8          1.8956    6.9608   -0.2307 H         1 <0>         0.4566
     33 H9          3.2638    0.1412    0.4236 H         1 <0>         0.3989
     34 H10         0.7428    1.6322    6.2328 H         1 <0>         0.4076
     35 H11         3.8975    1.8122    6.7377 H         1 <0>         0.4605
     36 H12         0.2142   -0.3418    5.9214 H         1 <0>         0.4140
     37 H13        -2.8821   -0.5375    5.7612 H         1 <0>         0.4612
     38 H14        -1.3621    3.3035    0.6728 H         1 <0>         0.3824
     39 H15        -1.1512    1.4783   -1.4115 H         1 <0>         0.3988
@<TRIPOS>BOND
     1    1    2 1
     2    1   11 1
     3    1    3 1
     4    1   30 1
     5    3    4 1
     6    3    5 1
     7    3   29 1
     8    5    6 1
     9    5    7 1
    10    5   24 1
    11    7    8 1
    12    7    9 1
    13    7   19 1
    14    9   10 1
    15    9   11 1
    16    9   18 1
    17   11   12 1
    18   11   13 1
    19   13   14 1
    20   14   15 2
    21   14   16 1
    22   14   17 1
    23   16   31 1
    24   17   32 1
    25   18   33 1
    26   19   20 1
    27   20   21 2
    28   20   22 1
    29   20   23 1
    30   22   34 1
    31   23   35 1
    32   24   25 1
    33   25   26 2
    34   25   27 1
    35   25   28 1
    36   27   36 1
    37   28   37 1
    38   29   38 1
    39   30   39 1
@<TRIPOS>MOLECULE
ZINC35203379
   51    55     0     0     0
SMALL
USER_CHARGES

@<TRIPOS>ATOM
      1 C1         -0.4369    0.4961    0.5109 C.ar      1 <0>        -0.1151
      2 C2          0.5684    0.7746    1.4132 C.ar      1 <0>        -0.0890
      3 C3          1.8865    0.4713    1.1059 C.ar      1 <0>         0.0337
      4 C4          2.2013   -0.1175   -0.1188 C.ar      1 <0>         0.0357
      5 C5          1.1991   -0.3991   -1.0277 C.ar      1 <0>        -0.0758
      6 C6         -0.1288   -0.0936   -0.7173 C.ar      1 <0>        -0.0751
      7 C7         -1.2015   -0.3931   -1.6832 C.2       1 <0>         0.0811
      8 N1         -2.3855    0.1129   -1.5161 N.2       1 <0>        -0.1784
      9 N2         -2.5416    1.3109   -0.8068 N.pl3     1 <0>        -0.5235
     10 C8         -3.8081    1.7805   -0.5136 C.2       1 <0>         0.5388
     11 N3         -4.9050    1.0668   -0.5507 N.2       1 <0>        -0.4419
     12 C9         -5.9602    1.8486   -0.2050 C.2       1 <0>        -0.1099
     13 C10        -7.3493    1.6216   -0.0763 C.2       1 <0>         0.5917
     14 O1         -7.8256    0.5209   -0.2974 O.2       1 <0>        -0.5063
     15 N4         -8.1367    2.6540    0.2983 N.am      1 <0>        -0.6537
     16 H1         -9.0930    2.5220    0.3933 H         1 <0>         0.4193
     17 C11        -7.5936    3.8797    0.5438 C.2       1 <0>         0.6479
     18 N5         -6.3037    4.1032    0.4271 N.2       1 <0>        -0.5774
     19 C12        -5.4633    3.1286    0.0603 C.2       1 <0>         0.2992
     20 N6         -4.1067    3.0621   -0.1341 N.pl3     1 <0>        -0.4514
     21 C13        -3.1527    4.1615    0.0310 C.3       1 <0>         0.3016
     22 H2         -3.6282    5.0032    0.5346 H         1 <0>         0.1315
     23 C14        -2.5957    4.6009   -1.3413 C.3       1 <0>         0.0721
     24 H3         -3.1254    5.4816   -1.7042 H         1 <0>         0.0968
     25 C15        -1.1155    4.9391   -1.0549 C.3       1 <0>         0.0434
     26 H4         -0.9134    5.9870   -1.2763 H         1 <0>         0.0920
     27 C16        -0.9533    4.6641    0.4566 C.3       1 <0>         0.0495
     28 H5         -1.0898    5.5833    1.0263 H         1 <0>         0.0978
     29 O2         -1.9976    3.7174    0.7757 O.3       1 <0>        -0.3566
     30 C17         0.4229    4.0602    0.7434 C.3       1 <0>         0.0773
     31 O3          0.6010    3.9298    2.1552 O.3       1 <0>        -0.5575
     32 O4         -0.2521    4.0923   -1.8161 O.3       1 <0>        -0.5380
     33 O5         -2.6945    3.5338   -2.2866 O.3       1 <0>        -0.5220
     34 N7         -8.4174    4.9105    0.9234 N.pl3     1 <0>        -0.8209
     35 O6          3.5516   -0.3118   -0.1746 O.3       1 <0>        -0.3057
     36 C18         4.1043    0.5344    0.8508 C.3       1 <0>         0.2121
     37 O7          3.0405    0.6443    1.8147 O.3       1 <0>        -0.3067
     38 H6         -1.4624    0.7298    0.7558 H         1 <0>         0.1449
     39 H7          0.3285    1.2308    2.3623 H         1 <0>         0.1410
     40 H8          1.4416   -0.8550   -1.9762 H         1 <0>         0.1450
     41 H9         -1.0025   -1.0334   -2.5299 H         1 <0>         0.1912
     42 H10        -1.7608    1.8108   -0.5214 H         1 <0>         0.4134
     43 H11         0.4933    3.0781    0.2760 H         1 <0>         0.0659
     44 H12         1.1972    4.7118    0.3382 H         1 <0>         0.0621
     45 H13         1.4539    3.5526    2.4109 H         1 <0>         0.3843
     46 H14         0.6893    4.2427   -1.6541 H         1 <0>         0.3825
     47 H15        -2.3588    3.7551   -3.1661 H         1 <0>         0.3895
     48 H16        -9.3716    4.7608    1.0135 H         1 <0>         0.4170
     49 H17        -8.0453    5.7884    1.1015 H         1 <0>         0.4277
     50 H18         4.9814    0.0687    1.3000 H         1 <0>         0.1337
     51 H19         4.3555    1.5142    0.4445 H         1 <0>         0.0848
@<TRIPOS>BOND
     1    1    6 ar
     2    1    2 ar
     3    1   38 1
     4    2    3 ar
     5    2   39 1
     6    3   37 1
     7    3    4 ar
     8    4    5 ar
     9    4   35 1
    10    5    6 ar
    11    5   40 1
    12    6    7 1
    13    7    8 2
    14    7   41 1
    15    8    9 1
    16    9   10 1
    17    9   42 1
    18   10   20 1
    19   10   11 2
    20   11   12 1
    21   12   19 2
    22   12   13 1
    23   13   14 2
    24   13   15 am
    25   15   16 1
    26   15   17 1
    27   17   18 2
    28   17   34 1
    29   18   19 1
    30   19   20 1
    31   20   21 1
    32   21   22 1
    33   21   29 1
    34   21   23 1
    35   23   24 1
    36   23   25 1
    37   23   33 1
    38   25   26 1
    39   25   27 1
    40   25   32 1
    41   27   28 1
    42   27   29 1
    43   27   30 1
    44   30   31 1
    45   30   43 1
    46   30   44 1
    47   31   45 1
    48   32   46 1
    49   33   47 1
    50   34   48 1
    51   34   49 1
    52   35   36 1
    53   36   37 1
    54   36   50 1
    55   36   51 1
@<TRIPOS>MOLECULE
ZINC18063621
   68    71     0     0     0
SMALL
USER_CHARGES
(1E)-1-[[(4,6-dimethylpyrimidin-2-yl)amino]-[2-(5-methoxy-1H-indol-3-yl)ethylamino]methylene]-3-(2-ethoxyphenyl)thiourea
@<TRIPOS>ATOM
      1 C1         -1.8701   -2.4899    5.4255 C.3       1 <0>        -0.1525
      2 C2         -0.9927   -2.6549    4.1830 C.3       1 <0>         0.0564
      3 O1         -1.5825   -1.9532    3.0867 O.3       1 <0>        -0.3209
      4 C3         -0.9235   -1.9990    1.8981 C.ar      1 <0>         0.1266
      5 C4          0.2672   -2.6988    1.7908 C.ar      1 <0>        -0.2088
      6 C5          0.9339   -2.7481    0.5805 C.ar      1 <0>        -0.0723
      7 C6          0.4204   -2.0921   -0.5231 C.ar      1 <0>        -0.1492
      8 C7         -0.7642   -1.3874   -0.4232 C.ar      1 <0>        -0.0319
      9 C8         -1.4413   -1.3375    0.7867 C.ar      1 <0>         0.0784
     10 N1         -2.6418   -0.6236    0.8906 N.pl3     1 <0>        -0.5845
     11 C9         -3.5332   -0.6534   -0.1198 C.2       1 <0>         0.5534
     12 S1         -3.2323   -1.6229   -1.4984 S.2       1 <0>        -0.6578
     13 N2         -4.6557    0.0762   -0.0454 N.2       1 <0>        -0.5813
     14 C10        -5.8329   -0.5238   -0.0102 C.2       1 <0>         0.7075
     15 N3         -5.9058   -1.8865   -0.0470 N.pl3     1 <0>        -0.7206
     16 C11        -7.2107   -2.5486   -0.1193 C.3       1 <0>         0.1052
     17 C12        -7.0121   -4.0654   -0.1482 C.3       1 <0>        -0.0484
     18 C13        -8.3543   -4.7464   -0.2226 C.2       1 <0>        -0.1799
     19 C14        -9.0691   -5.2171    0.8117 C.2       1 <0>         0.0733
     20 N4        -10.2358   -5.7701    0.3595 N.pl3     1 <0>        -0.5937
     21 H1        -10.9151   -6.1751    0.9211 H         1 <0>         0.4173
     22 C15       -10.3019   -5.6658   -1.0141 C.ar      1 <0>         0.0645
     23 C16        -9.1291   -5.0144   -1.4367 C.ar      1 <0>        -0.0595
     24 C17        -8.9149   -4.7746   -2.7955 C.ar      1 <0>        -0.1121
     25 C18        -9.8654   -5.1696   -3.7160 C.ar      1 <0>         0.1039
     26 C19       -11.0283   -5.8081   -3.2939 C.ar      1 <0>        -0.1768
     27 C20       -11.2470   -6.0554   -1.9568 C.ar      1 <0>        -0.0896
     28 O2         -9.6649   -4.9335   -5.0401 O.3       1 <0>        -0.3175
     29 C21       -10.6878   -5.3674   -5.9386 C.3       1 <0>         0.0280
     30 N5         -6.9790    0.2212    0.0630 N.pl3     1 <0>        -0.6061
     31 C22        -6.9049    1.6071    0.1003 C.ar      1 <0>         0.5529
     32 N6         -5.7171    2.1918    0.0698 N.ar      1 <0>        -0.4886
     33 C23        -5.6112    3.5099    0.0991 C.ar      1 <0>         0.2072
     34 C24        -6.7619    4.2791    0.1733 C.ar      1 <0>        -0.2589
     35 C25        -7.9884    3.6341    0.2088 C.ar      1 <0>         0.2091
     36 N7         -8.0235    2.3124    0.1712 N.ar      1 <0>        -0.5540
     37 C26        -9.2661    4.4291    0.2889 C.3       1 <0>        -0.1069
     38 C27        -4.2557    4.1673    0.0577 C.3       1 <0>        -0.1054
     39 H2         -1.9531   -1.4318    5.6737 H         1 <0>         0.0655
     40 H3         -2.8621   -2.8952    5.2262 H         1 <0>         0.0649
     41 H4         -1.4202   -3.0251    6.2617 H         1 <0>         0.0802
     42 H5         -0.9097   -3.7130    3.9347 H         1 <0>         0.0640
     43 H6         -0.0007   -2.2495    4.3822 H         1 <0>         0.0639
     44 H7          0.6730   -3.2091    2.6518 H         1 <0>         0.1308
     45 H8          1.8604   -3.2969    0.4980 H         1 <0>         0.1268
     46 H9          0.9466   -2.1303   -1.4655 H         1 <0>         0.1298
     47 H10        -1.1626   -0.8755   -1.2866 H         1 <0>         0.1588
     48 H11        -2.8317   -0.1078    1.6898 H         1 <0>         0.4116
     49 H12        -5.0936   -2.4164   -0.0252 H         1 <0>         0.4279
     50 H13        -7.8050   -2.2765    0.7530 H         1 <0>         0.0705
     51 H14        -7.7287   -2.2327   -1.0248 H         1 <0>         0.0773
     52 H15        -6.4178   -4.3374   -1.0205 H         1 <0>         0.0863
     53 H16        -6.4940   -4.3813    0.7573 H         1 <0>         0.0783
     54 H17        -8.7677   -5.1664    1.8476 H         1 <0>         0.1713
     55 H18        -8.0134   -4.2790   -3.1241 H         1 <0>         0.1316
     56 H19       -11.7656   -6.1128   -4.0218 H         1 <0>         0.1321
     57 H20       -12.1524   -6.5521   -1.6405 H         1 <0>         0.1240
     58 H21       -10.8161   -6.4462   -5.8496 H         1 <0>         0.0541
     59 H22       -11.6247   -4.8685   -5.6907 H         1 <0>         0.0540
     60 H23       -10.4031   -5.1185   -6.9609 H         1 <0>         0.0997
     61 H24        -7.8429   -0.2192    0.0888 H         1 <0>         0.4360
     62 H25        -6.7042    5.3571    0.2031 H         1 <0>         0.1483
     63 H26        -9.5288    4.5903    1.3344 H         1 <0>         0.0871
     64 H27        -9.1267    5.3916   -0.2033 H         1 <0>         0.0842
     65 H28       -10.0671    3.8804   -0.2065 H         1 <0>         0.0834
     66 H29        -3.8830    4.2957    1.0739 H         1 <0>         0.0851
     67 H30        -3.5650    3.5405   -0.5062 H         1 <0>         0.0846
     68 H31        -4.3389    5.1413   -0.4245 H         1 <0>         0.0816
@<TRIPOS>BOND
     1    1    2 1
     2    1   39 1
     3    1   40 1
     4    1   41 1
     5    2    3 1
     6    2   42 1
     7    2   43 1
     8    3    4 1
     9    4    9 ar
    10    4    5 ar
    11    5    6 ar
    12    5   44 1
    13    6    7 ar
    14    6   45 1
    15    7    8 ar
    16    7   46 1
    17    8    9 ar
    18    8   47 1
    19    9   10 1
    20   10   11 1
    21   10   48 1
    22   11   12 2
    23   11   13 1
    24   13   14 2
    25   14   15 1
    26   14   30 1
    27   15   16 1
    28   15   49 1
    29   16   17 1
    30   16   50 1
    31   16   51 1
    32   17   18 1
    33   17   52 1
    34   17   53 1
    35   18   23 1
    36   18   19 2
    37   19   20 1
    38   19   54 1
    39   20   21 1
    40   20   22 1
    41   22   27 ar
    42   22   23 ar
    43   23   24 ar
    44   24   25 ar
    45   24   55 1
    46   25   26 ar
    47   25   28 1
    48   26   27 ar
    49   26   56 1
    50   27   57 1
    51   28   29 1
    52   29   58 1
    53   29   59 1
    54   29   60 1
    55   30   31 1
    56   30   61 1
    57   31   36 ar
    58   31   32 ar
    59   32   33 ar
    60   33   34 ar
    61   33   38 1
    62   34   35 ar
    63   34   62 1
    64   35   36 ar
    65   35   37 1
    66   37   63 1
    67   37   64 1
    68   37   65 1
    69   38   66 1
    70   38   67 1
    71   38   68 1
@<TRIPOS>MOLECULE
ZINC20919103
   66    69     0     0     0
SMALL
USER_CHARGES
3-[[4-amino-5-[N'-(1-benzyl-2-phenyl-ethylidene)hydrazino]-1,2,4-triazol-3-yl]sulfanyl]-N-(4-methoxyphenyl)propanamide
@<TRIPOS>ATOM
      1 C1        -13.9247    4.9950    0.2375 C.3       1 <0>         0.0234
      2 O1        -13.0889    4.3532   -0.7276 O.3       1 <0>        -0.3171
      3 C2        -11.9015    3.8599   -0.2852 C.ar      1 <0>         0.1139
      4 C3        -11.0419    3.2248   -1.1696 C.ar      1 <0>        -0.1331
      5 C4         -9.8362    2.7232   -0.7208 C.ar      1 <0>        -0.0814
      6 C5         -9.4840    2.8550    0.6157 C.ar      1 <0>         0.1093
      7 C6        -10.3470    3.4865    1.5013 C.ar      1 <0>        -0.1039
      8 C7        -11.5501    3.9923    1.0502 C.ar      1 <0>        -0.1910
      9 N1         -8.2610    2.3458    1.0718 N.am      1 <0>        -0.6829
     10 C8         -7.1758    2.3829    0.2733 C.2       1 <0>         0.5210
     11 O2         -7.2764    2.7794   -0.8685 O.2       1 <0>        -0.5156
     12 C9         -5.8376    1.9317    0.7993 C.3       1 <0>        -0.1257
     13 C10        -4.7832    2.0742   -0.3002 C.3       1 <0>        -0.0856
     14 S1         -3.1723    1.5311    0.3329 S.3       1 <0>        -0.0107
     15 C11        -2.0808    1.7533   -1.0324 C.2       1 <0>         0.1885
     16 N2         -2.4104    2.2117   -2.2161 N.2       1 <0>        -0.2945
     17 N3         -1.2555    2.2328   -3.0090 N.2       1 <0>        -0.3131
     18 C12        -0.2574    1.7919   -2.2826 C.2       1 <0>         0.4883
     19 N4         -0.7426    1.4788   -1.0436 N.pl3     1 <0>        -0.2663
     20 N5         -0.0158    0.9839    0.0018 N.3       1 <0>        -0.7779
     21 N6          1.0606    1.6627   -2.6994 N.pl3     1 <0>        -0.5651
     22 N7          1.4211    2.0230   -4.0044 N.2       1 <0>        -0.1876
     23 C13         2.6365    1.9038   -4.3888 C.2       1 <0>         0.1013
     24 C14         3.6793    1.3759   -3.4375 C.3       1 <0>        -0.0822
     25 C15         3.7579   -0.1241   -3.5604 C.ar      1 <0>        -0.0798
     26 C16         2.9640   -0.9255   -2.7614 C.ar      1 <0>        -0.1176
     27 C17         3.0326   -2.3013   -2.8775 C.ar      1 <0>        -0.1113
     28 C18         3.9023   -2.8758   -3.7855 C.ar      1 <0>        -0.1179
     29 C19         4.7003   -2.0744   -4.5805 C.ar      1 <0>        -0.1117
     30 C20         4.6279   -0.6986   -4.4681 C.ar      1 <0>        -0.1085
     31 C21         3.0243    2.2915   -5.7925 C.3       1 <0>        -0.0203
     32 C22         3.9663    3.4669   -5.7469 C.ar      1 <0>        -0.0814
     33 C23         3.4664    4.7551   -5.7824 C.ar      1 <0>        -0.1063
     34 C24         4.3302    5.8333   -5.7357 C.ar      1 <0>        -0.1174
     35 C25         5.6946    5.6232   -5.6637 C.ar      1 <0>        -0.1190
     36 C26         6.1949    4.3348   -5.6340 C.ar      1 <0>        -0.1194
     37 C27         5.3307    3.2567   -5.6754 C.ar      1 <0>        -0.1152
     38 H1        -14.8465    5.3446   -0.2504 H         1 <0>         0.1022
     39 H2        -13.3912    5.8535    0.6715 H         1 <0>         0.0562
     40 H3        -14.1798    4.2809    1.0344 H         1 <0>         0.0563
     41 H4        -11.3160    3.1224   -2.2092 H         1 <0>         0.1346
     42 H5         -9.1670    2.2288   -1.4095 H         1 <0>         0.1459
     43 H6        -10.0755    3.5857    2.5420 H         1 <0>         0.1286
     44 H7        -12.2195    4.4875    1.7381 H         1 <0>         0.1318
     45 H8         -8.1865    1.9158    2.0815 H         1 <0>         0.4348
     46 H9         -5.5543    2.5528    1.6618 H         1 <0>         0.1105
     47 H10        -5.9022    0.8788    1.1112 H         1 <0>         0.1104
     48 H11        -5.0666    1.4531   -1.1627 H         1 <0>         0.1086
     49 H12        -4.7186    3.1271   -0.6121 H         1 <0>         0.1084
     50 H13         1.0620    0.7988   -0.1165 H         1 <0>         0.4331
     51 H14        -0.5084    0.7705    0.9619 H         1 <0>         0.4480
     52 H15         1.8218    1.2775   -2.0050 H         1 <0>         0.4034
     53 H16         4.6569    1.8158   -3.6842 H         1 <0>         0.1063
     54 H17         3.4055    1.6456   -2.4068 H         1 <0>         0.0752
     55 H18         2.2875   -0.4768   -2.0492 H         1 <0>         0.1062
     56 H19         2.4094   -2.9274   -2.2562 H         1 <0>         0.1227
     57 H20         3.9586   -3.9507   -3.8736 H         1 <0>         0.1243
     58 H21         5.3801   -2.5233   -5.2896 H         1 <0>         0.1263
     59 H22         5.2514   -0.0725   -5.0891 H         1 <0>         0.1258
     60 H23         3.5215    1.4419   -6.2834 H         1 <0>         0.0999
     61 H24         2.1225    2.5661   -6.3595 H         1 <0>         0.0997
     62 H25         2.4006    4.9193   -5.8428 H         1 <0>         0.1249
     63 H26         3.9394    6.8398   -5.7593 H         1 <0>         0.1227
     64 H27         6.3698    6.4655   -5.6310 H         1 <0>         0.1216
     65 H28         7.2609    4.1707   -5.5781 H         1 <0>         0.1227
     66 H29         5.7216    2.2502   -5.6521 H         1 <0>         0.1223
@<TRIPOS>BOND
     1    1    2 1
     2    1   38 1
     3    1   39 1
     4    1   40 1
     5    2    3 1
     6    3    8 ar
     7    3    4 ar
     8    4    5 ar
     9    4   41 1
    10    5    6 ar
    11    5   42 1
    12    6    7 ar
    13    6    9 1
    14    7    8 ar
    15    7   43 1
    16    8   44 1
    17    9   10 am
    18    9   45 1
    19   10   11 2
    20   10   12 1
    21   12   13 1
    22   12   46 1
    23   12   47 1
    24   13   14 1
    25   13   48 1
    26   13   49 1
    27   14   15 1
    28   15   19 1
    29   15   16 2
    30   16   17 1
    31   17   18 2
    32   18   19 1
    33   18   21 1
    34   19   20 1
    35   20   50 1
    36   20   51 1
    37   21   22 1
    38   21   52 1
    39   22   23 2
    40   23   24 1
    41   23   31 1
    42   24   25 1
    43   24   53 1
    44   24   54 1
    45   25   30 ar
    46   25   26 ar
    47   26   27 ar
    48   26   55 1
    49   27   28 ar
    50   27   56 1
    51   28   29 ar
    52   28   57 1
    53   29   30 ar
    54   29   58 1
    55   30   59 1
    56   31   32 1
    57   31   60 1
    58   31   61 1
    59   32   37 ar
    60   32   33 ar
    61   33   34 ar
    62   33   62 1
    63   34   35 ar
    64   34   63 1
    65   35   36 ar
    66   35   64 1
    67   36   37 ar
    68   36   65 1
    69   37   66 1
@<TRIPOS>MOLECULE
ZINC39362824
   53    56     0     0     0
SMALL
USER_CHARGES

@<TRIPOS>ATOM
      1 C1          1.0626   -0.4564   -0.9895 C.ar      1 <0>        -0.1233
      2 C2          2.2453    0.2553   -1.0378 C.ar      1 <0>        -0.0303
      3 C3          2.3764    1.4306   -0.3212 C.ar      1 <0>        -0.0660
      4 C4          1.3248    1.8971    0.4461 C.ar      1 <0>        -0.0309
      5 C5          0.1397    1.1899    0.4989 C.ar      1 <0>        -0.1441
      6 C6          0.0045    0.0096   -0.2203 C.ar      1 <0>         0.2013
      7 N1         -1.1952   -0.7087   -0.1696 N.am      1 <0>        -0.6673
      8 C7         -1.1792   -2.0539   -0.2516 C.2       1 <0>         0.5384
      9 O1         -0.1217   -2.6475   -0.2753 O.2       1 <0>        -0.4900
     10 C8         -2.4751   -2.8205   -0.3137 C.3       1 <0>        -0.1531
     11 S1         -2.1225   -4.5969   -0.4180 S.3       1 <0>         0.0804
     12 C9         -3.7165   -5.3449   -0.4824 C.2       1 <0>         0.2623
     13 N2         -4.8256   -4.6859   -0.4609 N.2       1 <0>        -0.2961
     14 N3         -5.9320   -5.5416   -0.5246 N.pl3     1 <0>        -0.6616
     15 C10        -5.3895   -6.9094   -0.5940 C.3       1 <0>         0.3786
     16 H1         -5.6905   -7.3935   -1.5231 H         1 <0>         0.0870
     17 N4         -3.9302   -6.7131   -0.5685 N.pl3     1 <0>        -0.5782
     18 C11        -2.9513   -7.7108   -0.6183 C.ar      1 <0>         0.1439
     19 C12        -2.7880   -8.4681   -1.7712 C.ar      1 <0>        -0.0836
     20 C13        -1.8204   -9.4524   -1.8183 C.ar      1 <0>        -0.1395
     21 C14        -1.0136   -9.6849   -0.7171 C.ar      1 <0>         0.1091
     22 C15        -1.1746   -8.9312    0.4333 C.ar      1 <0>        -0.1382
     23 C16        -2.1371   -7.9420    0.4830 C.ar      1 <0>        -0.0839
     24 F1         -0.0683  -10.6489   -0.7651 F         1 <0>        -0.1331
     25 C17        -5.8500   -7.7314    0.6115 C.3       1 <0>        -0.1223
     26 C18        -7.3412   -7.9366    0.5395 C.2       1 <0>         0.2032
     27 N5         -8.1909   -6.9812    1.0270 N.am      1 <0>        -0.6365
     28 C19        -9.5238   -7.1546    0.9672 C.2       1 <0>         0.7010
     29 O2        -10.2605   -6.2928    1.4063 O.2       1 <0>        -0.5345
     30 N6        -10.0530   -8.2683    0.4276 N.am      1 <0>        -0.6586
     31 C20        -9.2497   -9.2333   -0.0638 C.2       1 <0>         0.5502
     32 O3         -9.7277  -10.2413   -0.5522 O.2       1 <0>        -0.5069
     33 C21        -7.8454   -9.0615   -0.0114 C.2       1 <0>        -0.2820
     34 N7          3.6454    2.1908   -0.3752 N.pl3     1 <0>         0.0349
     35 O4          4.5657    1.7839   -1.0453 O.2       1 <0>        -0.1574
     36 O5          3.7614    3.2186    0.2508 O.3       1 <0>        -0.1590
     37 H2          0.9592   -1.3720   -1.5530 H         1 <0>         0.1588
     38 H3          3.0687   -0.1068   -1.6356 H         1 <0>         0.1592
     39 H4          1.4305    2.8152    1.0049 H         1 <0>         0.1597
     40 H5         -0.6811    1.5545    1.0986 H         1 <0>         0.1525
     41 H6         -2.0384   -0.2386   -0.0755 H         1 <0>         0.4224
     42 H7         -3.0602   -2.6183    0.5835 H         1 <0>         0.1315
     43 H8         -3.0393   -2.5099   -1.1931 H         1 <0>         0.1328
     44 H9         -6.8676   -5.2853   -0.5228 H         1 <0>         0.4442
     45 H10        -3.4175   -8.2876   -2.6300 H         1 <0>         0.1376
     46 H11        -1.6931  -10.0415   -2.7145 H         1 <0>         0.1442
     47 H12        -0.5442   -9.1143    1.2909 H         1 <0>         0.1443
     48 H13        -2.2592   -7.3513    1.3789 H         1 <0>         0.1386
     49 H14        -5.3492   -8.6996    0.6037 H         1 <0>         0.1182
     50 H15        -5.6002   -7.2005    1.5301 H         1 <0>         0.1005
     51 H16       -11.0163   -8.3772    0.3924 H         1 <0>         0.4336
     52 H17        -7.1861   -9.8217   -0.4036 H         1 <0>         0.1735
     53 H18        -7.8289   -6.1715    1.4198 H         1 <0>         0.4347
@<TRIPOS>BOND
     1    1    6 ar
     2    1    2 ar
     3    1   37 1
     4    2    3 ar
     5    2   38 1
     6    3    4 ar
     7    3   34 1
     8    4    5 ar
     9    4   39 1
    10    5    6 ar
    11    5   40 1
    12    6    7 1
    13    7    8 am
    14    7   41 1
    15    8    9 2
    16    8   10 1
    17   10   11 1
    18   10   42 1
    19   10   43 1
    20   11   12 1
    21   12   17 1
    22   12   13 2
    23   13   14 1
    24   14   15 1
    25   14   44 1
    26   15   16 1
    27   15   17 1
    28   15   25 1
    29   17   18 1
    30   18   23 ar
    31   18   19 ar
    32   19   20 ar
    33   19   45 1
    34   20   21 ar
    35   20   46 1
    36   21   22 ar
    37   21   24 1
    38   22   23 ar
    39   22   47 1
    40   23   48 1
    41   25   49 1
    42   25   50 1
    43   25   26 1
    44   26   33 2
    45   26   27 1
    46   27   28 am
    47   27   53 1
    48   28   29 2
    49   28   30 am
    50   30   51 1
    51   30   31 am
    52   31   32 2
    53   31   33 1
    54   33   52 1
    55   34   35 2
    56   34   36 1
@<TRIPOS>MOLECULE
ZINC09087403
   58    61     0     0     0
SMALL
USER_CHARGES

@<TRIPOS>ATOM
      1 C1         -0.1756    1.5696    1.0263 C.3       1 <0>        -0.1524
      2 C2         -0.0978    0.0588    0.7972 C.3       1 <0>         0.0557
      3 O1          0.7669   -0.2116   -0.3078 O.3       1 <0>        -0.3080
      4 C3          0.9465   -1.5164   -0.6464 C.ar      1 <0>         0.0991
      5 C4          0.3001   -2.5139    0.0658 C.ar      1 <0>        -0.1663
      6 C5          0.4834   -3.8398   -0.2799 C.ar      1 <0>        -0.0589
      7 C6          1.3114   -4.1740   -1.3354 C.ar      1 <0>        -0.0689
      8 C7          1.9597   -3.1838   -2.0498 C.ar      1 <0>        -0.1698
      9 C8          1.7754   -1.8525   -1.7124 C.ar      1 <0>         0.0980
     10 O2          2.4077   -0.8768   -2.4179 O.3       1 <0>        -0.3027
     11 C9          3.2429   -1.2957   -3.4991 C.3       1 <0>         0.1020
     12 C10         3.8548   -0.0867   -4.1587 C.ar      1 <0>        -0.0758
     13 C11         3.5695    1.1792   -3.6820 C.ar      1 <0>        -0.0700
     14 C12         4.1302    2.2883   -4.2864 C.ar      1 <0>        -0.1037
     15 C13         4.9780    2.1324   -5.3689 C.ar      1 <0>        -0.0243
     16 C14         5.2642    0.8661   -5.8460 C.ar      1 <0>        -0.1010
     17 C15         4.7064   -0.2442   -5.2375 C.ar      1 <0>        -0.0206
     18 Cl1         5.0698   -1.8343   -5.8317 Cl        1 <0>        -0.0525
     19 Cl2         5.6818    3.5258   -6.1283 Cl        1 <0>        -0.0550
     20 C16        -0.2205   -4.9232    0.4958 C.3       1 <0>         0.1201
     21 C17        -1.2964   -5.5372   -0.3623 C.2       1 <0>        -0.2287
     22 C18        -2.6750   -5.4371   -0.1515 C.2       1 <0>         0.0931
     23 N1         -3.2846   -6.0981   -1.1018 N.2       1 <0>        -0.2704
     24 N2         -2.3141   -6.6431   -1.9521 N.pl3     1 <0>        -0.4814
     25 H1         -2.4839   -7.1813   -2.7410 H         1 <0>         0.4381
     26 C19        -1.0995   -6.2821   -1.4824 C.2       1 <0>         0.2794
     27 O3          0.1002   -6.6068   -2.0286 O.3       1 <0>        -0.4567
     28 C20        -3.3439   -4.6956    0.9771 C.3       1 <0>        -0.0813
     29 C21         0.7736   -5.9847    0.8911 C.2       1 <0>        -0.2347
     30 C22         0.4895   -7.2776    1.1696 C.2       1 <0>         0.0980
     31 N3          1.6475   -7.8979    1.4784 N.pl3     1 <0>        -0.4611
     32 N4          2.6809   -6.9567    1.3875 N.2       1 <0>        -0.3022
     33 H2          1.7469   -8.8318    1.7209 H         1 <0>         0.4434
     34 C23         2.1585   -5.8087    1.0295 C.2       1 <0>         0.2795
     35 O4          2.8399   -4.6489    0.8299 O.3       1 <0>        -0.4475
     36 C24        -0.8771   -7.9122    1.1411 C.3       1 <0>        -0.0937
     37 H3          0.8206    1.9562    1.2413 H         1 <0>         0.0657
     38 H4         -0.5675    2.0530    0.1314 H         1 <0>         0.0655
     39 H5         -0.8351    1.7758    1.8692 H         1 <0>         0.0770
     40 H6          0.2941   -0.4247    1.6921 H         1 <0>         0.0595
     41 H7         -1.0940   -0.3278    0.5822 H         1 <0>         0.0593
     42 H8         -0.3467   -2.2555    0.8912 H         1 <0>         0.1300
     43 H9          1.4524   -5.2110   -1.6022 H         1 <0>         0.1347
     44 H10         2.6063   -3.4475   -2.8736 H         1 <0>         0.1271
     45 H11         4.0343   -1.9411   -3.1179 H         1 <0>         0.0828
     46 H12         2.6462   -1.8442   -4.2279 H         1 <0>         0.0810
     47 H13         2.9078    1.3014   -2.8372 H         1 <0>         0.1551
     48 H14         3.9063    3.2771   -3.9140 H         1 <0>         0.1432
     49 H15         5.9258    0.7438   -6.6908 H         1 <0>         0.1473
     50 H16        -0.6703   -4.4951    1.3916 H         1 <0>         0.0903
     51 H17         0.5060   -7.3964   -1.6455 H         1 <0>         0.3917
     52 H18        -3.5312   -3.6653    0.6744 H         1 <0>         0.0812
     53 H19        -4.2894   -5.1804    1.2204 H         1 <0>         0.0775
     54 H20        -2.6950   -4.7047    1.8528 H         1 <0>         0.0798
     55 H21         2.9922   -4.1383    1.6369 H         1 <0>         0.3947
     56 H22        -1.0733   -8.3077    0.1445 H         1 <0>         0.0706
     57 H23        -0.9163   -8.7233    1.8681 H         1 <0>         0.0728
     58 H24        -1.6302   -7.1644    1.3899 H         1 <0>         0.0942
@<TRIPOS>BOND
     1    1    2 1
     2    1   37 1
     3    1   38 1
     4    1   39 1
     5    2    3 1
     6    2   40 1
     7    2   41 1
     8    3    4 1
     9    4    9 ar
    10    4    5 ar
    11    5    6 ar
    12    5   42 1
    13    6    7 ar
    14    6   20 1
    15    7    8 ar
    16    7   43 1
    17    8    9 ar
    18    8   44 1
    19    9   10 1
    20   10   11 1
    21   11   12 1
    22   11   45 1
    23   11   46 1
    24   12   17 ar
    25   12   13 ar
    26   13   14 ar
    27   13   47 1
    28   14   15 ar
    29   14   48 1
    30   15   16 ar
    31   15   19 1
    32   16   17 ar
    33   16   49 1
    34   17   18 1
    35   20   21 1
    36   20   50 1
    37   20   29 1
    38   21   26 2
    39   21   22 1
    40   22   23 2
    41   22   28 1
    42   23   24 1
    43   24   25 1
    44   24   26 1
    45   26   27 1
    46   27   51 1
    47   28   52 1
    48   28   53 1
    49   28   54 1
    50   29   30 2
    51   29   34 1
    52   30   31 1
    53   30   36 1
    54   31   32 1
    55   31   33 1
    56   32   34 2
    57   34   35 1
    58   35   55 1
    59   36   56 1
    60   36   57 1
    61   36   58 1
@<TRIPOS>MOLECULE
ZINC59889417
   61    63     0     0     0
SMALL
USER_CHARGES

@<TRIPOS>ATOM
      1 C1         -0.2221    1.9369   -2.3989 C.3       1 <0>        -0.1482
      2 C2         -0.2400    0.4076   -2.3588 C.3       1 <0>        -0.0636
      3 C3          0.6208   -0.1342   -3.4709 C.2       1 <0>         0.0945
      4 N1          1.6821   -0.7947   -3.1951 N.2       1 <0>        -0.2097
      5 N2          2.4823   -1.2983   -4.2290 N.pl3     1 <0>        -0.5558
      6 C4          3.6292   -2.0121   -3.9309 C.2       1 <0>         0.5618
      7 N3          4.0752   -2.2915   -2.7243 N.2       1 <0>        -0.5216
      8 C5          5.2084   -2.9960   -2.8155 C.2       1 <0>         0.2297
      9 N4          5.4984   -3.1743   -4.0823 N.2       1 <0>        -0.3147
     10 N5          4.4846   -2.5495   -4.8262 N.pl3     1 <0>        -0.5049
     11 S1          6.1580   -3.5883   -1.4546 S.3       1 <0>         0.0352
     12 C6          7.5496   -4.4527   -2.2336 C.3       1 <0>        -0.1063
     13 C7          8.4662   -5.0240   -1.1499 C.3       1 <0>        -0.1243
     14 C8          9.6223   -5.7421   -1.7971 C.2       1 <0>         0.5225
     15 O1          9.7049   -5.7921   -3.0062 O.2       1 <0>        -0.5049
     16 N6         10.5643   -6.3289   -1.0325 N.am      1 <0>        -0.6765
     17 C9         11.5841   -7.0777   -1.6302 C.ar      1 <0>         0.2059
     18 C10        12.0744   -8.2136   -0.9996 C.ar      1 <0>        -0.1655
     19 C11        13.0810   -8.9506   -1.5922 C.ar      1 <0>         0.0031
     20 C12        13.6006   -8.5583   -2.8122 C.ar      1 <0>        -0.6915
     21 C13        13.1148   -7.4275   -3.4425 C.ar      1 <0>         0.0058
     22 C14        12.1040   -6.6897   -2.8581 C.ar      1 <0>        -0.1417
     23 S2         14.8847   -9.5012   -3.5649 S.o2      1 <0>         2.6929
     24 O2         15.5752   -8.6207   -4.4407 O.2       1 <0>        -0.9469
     25 O3         15.5404  -10.2031   -2.5177 O.2       1 <0>        -0.9500
     26 N7         14.1586  -10.6440   -4.5184 N.pl3     1 <0>        -1.0529
     27 C15        13.3242  -10.2507   -5.5672 C.ar      1 <0>         0.1518
     28 C16        13.6157   -9.1047   -6.2965 C.ar      1 <0>        -0.1706
     29 C17        12.7890   -8.7190   -7.3331 C.ar      1 <0>        -0.0937
     30 C18        11.6716   -9.4719   -7.6454 C.ar      1 <0>        -0.1282
     31 C19        11.3784  -10.6127   -6.9213 C.ar      1 <0>        -0.0977
     32 C20        12.2045  -11.0076   -5.8872 C.ar      1 <0>        -0.1028
     33 C21        11.8878  -12.2549   -5.1029 C.3       1 <0>        -0.1138
     34 C22         0.2321    0.1017   -4.9077 C.3       1 <0>        -0.1594
     35 H1          0.8007    2.2918   -2.2725 H         1 <0>         0.0581
     36 H2         -0.6097    2.2798   -3.3582 H         1 <0>         0.0585
     37 H3         -0.8447    2.3288   -1.5945 H         1 <0>         0.0680
     38 H4          0.1476    0.0647   -1.3995 H         1 <0>         0.0877
     39 H5         -1.2628    0.0527   -2.4852 H         1 <0>         0.0899
     40 H6          2.2321   -1.1465   -5.1538 H         1 <0>         0.3989
     41 H7          7.1712   -5.2647   -2.8546 H         1 <0>         0.1024
     42 H8          8.1112   -3.7531   -2.8528 H         1 <0>         0.1027
     43 H9          8.8446   -4.2120   -0.5290 H         1 <0>         0.1140
     44 H10         7.9046   -5.7236   -0.5308 H         1 <0>         0.1138
     45 H11        10.5354   -6.2321   -0.0677 H         1 <0>         0.4183
     46 H12        11.6693   -8.5203   -0.0465 H         1 <0>         0.1389
     47 H13        13.4630   -9.8339   -1.1020 H         1 <0>         0.1454
     48 H14        13.5229   -7.1236   -4.3952 H         1 <0>         0.1437
     49 H15        11.7214   -5.8095   -3.3533 H         1 <0>         0.1502
     50 H16        14.3127  -11.5865   -4.3485 H         1 <0>         0.4260
     51 H17        14.4876   -8.5159   -6.0527 H         1 <0>         0.1600
     52 H18        13.0150   -7.8282   -7.9004 H         1 <0>         0.1299
     53 H19        11.0265   -9.1678   -8.4564 H         1 <0>         0.1252
     54 H20        10.5047  -11.1980   -7.1673 H         1 <0>         0.1266
     55 H21        11.2485  -12.0001   -4.2577 H         1 <0>         0.0729
     56 H22        11.3723  -12.9677   -5.7465 H         1 <0>         0.0712
     57 H23        12.8136  -12.6990   -4.7372 H         1 <0>         0.0634
     58 H24         0.6821    1.0305   -5.2580 H         1 <0>         0.0857
     59 H25         0.5859   -0.7273   -5.5206 H         1 <0>         0.0625
     60 H26        -0.8530    0.1723   -4.9836 H         1 <0>         0.0897
     61 H27         4.4141   -2.5099   -5.7929 H         1 <0>         0.4387
@<TRIPOS>BOND
     1    1    2 1
     2    1   35 1
     3    1   36 1
     4    1   37 1
     5    2    3 1
     6    2   38 1
     7    2   39 1
     8    3    4 2
     9    3   34 1
    10    4    5 1
    11    5    6 1
    12    5   40 1
    13    6   10 1
    14    6    7 2
    15    7    8 1
    16    8    9 2
    17    8   11 1
    18    9   10 1
    19   10   61 1
    20   11   12 1
    21   12   13 1
    22   12   41 1
    23   12   42 1
    24   13   14 1
    25   13   43 1
    26   13   44 1
    27   14   15 2
    28   14   16 am
    29   16   17 1
    30   16   45 1
    31   17   22 ar
    32   17   18 ar
    33   18   19 ar
    34   18   46 1
    35   19   20 ar
    36   19   47 1
    37   20   21 ar
    38   20   23 1
    39   21   22 ar
    40   21   48 1
    41   22   49 1
    42   23   24 2
    43   23   25 2
    44   23   26 1
    45   26   27 1
    46   26   50 1
    47   27   32 ar
    48   27   28 ar
    49   28   29 ar
    50   28   51 1
    51   29   30 ar
    52   29   52 1
    53   30   31 ar
    54   30   53 1
    55   31   32 ar
    56   31   54 1
    57   32   33 1
    58   33   55 1
    59   33   56 1
    60   33   57 1
    61   34   58 1
    62   34   59 1
    63   34   60 1
@<TRIPOS>MOLECULE
ZINC08791794
   61    65     0     0     0
SMALL
USER_CHARGES
6-hydroxy-3-[2-(4-methoxyphenyl)ethyl]-5-(methoxyBLAHyl)-1H-pyrimidine-2,4-dione
@<TRIPOS>ATOM
      1 C1          1.5457    0.7043  -10.9485 C.3       1 <0>         0.0255
      2 O1          2.8517    1.1174  -10.5412 O.3       1 <0>        -0.3152
      3 C2          3.0523    1.3051   -9.2103 C.ar      1 <0>         0.1352
      4 C3          4.2962    1.7061   -8.7449 C.ar      1 <0>        -0.1495
      5 C4          4.4975    1.8966   -7.3915 C.ar      1 <0>        -0.0694
      6 C5          3.4605    1.6880   -6.5010 C.ar      1 <0>        -0.1329
      7 C6          2.2215    1.2828   -6.9618 C.ar      1 <0>        -0.0683
      8 C7          2.0135    1.0964   -8.3147 C.ar      1 <0>        -0.2073
      9 C8          3.6829    1.8966   -5.0252 C.3       1 <0>        -0.0825
     10 C9          3.3638    3.3480   -4.6615 C.3       1 <0>         0.1125
     11 N1          3.5799    3.5508   -3.2268 N.am      1 <0>        -0.5467
     12 C10         2.5679    3.3412   -2.3616 C.2       1 <0>         0.5752
     13 O2          1.4762    2.9839   -2.7693 O.2       1 <0>        -0.5065
     14 C11         2.7790    3.5418   -0.9859 C.2       1 <0>        -0.4037
     15 C12         4.0109    3.9360   -0.5552 C.2       1 <0>         0.4831
     16 N2          5.0146    4.1333   -1.4696 N.am      1 <0>        -0.6538
     17 H1          5.8928    4.4138   -1.1681 H         1 <0>         0.4457
     18 C13         4.7888    3.9398   -2.7820 C.2       1 <0>         0.7023
     19 O3          5.6904    4.1195   -3.5777 O.2       1 <0>        -0.4893
     20 O4          4.2413    4.1312    0.7604 O.3       1 <0>        -0.4323
     21 C14         1.6607    3.3182   -0.0008 C.3       1 <0>         0.2188
     22 H2          1.9879    3.6101    0.9972 H         1 <0>         0.1605
     23 C15         1.2690    1.8595   -0.0001 C.2       1 <0>         0.0447
     24 C16        -0.0175    1.4416    0.0100 C.2       1 <0>        -0.1542
     25 C17         0.0021   -0.0041    0.0020 C.ar      1 <0>        -0.0571
     26 C18        -1.0115   -0.9681    0.0053 C.ar      1 <0>        -0.1068
     27 C19        -0.6113   -2.2960   -0.0056 C.ar      1 <0>         0.1129
     28 C20         0.7307   -2.6567   -0.0190 C.ar      1 <0>        -0.1676
     29 C21         1.7462   -1.7173   -0.0227 C.ar      1 <0>        -0.0867
     30 C22         1.3714   -0.3757   -0.0119 C.ar      1 <0>         0.0796
     31 N3          2.1065    0.7779   -0.0118 N.pl3     1 <0>        -0.5599
     32 H3          3.0755    0.8223   -0.0195 H         1 <0>         0.4162
     33 O5         -1.5583   -3.2720   -0.0030 O.3       1 <0>        -0.3167
     34 C23        -1.0963   -4.6242   -0.0145 C.3       1 <0>         0.0243
     35 C24        -1.1967    2.3814    0.0319 C.3       1 <0>        -0.0696
     36 C25        -0.6877    3.7739    0.4253 C.3       1 <0>         0.0005
     37 H4          1.3030   -0.2487  -10.4785 H         1 <0>         0.0573
     38 H5          0.8161    1.4552  -10.6453 H         1 <0>         0.0571
     39 H6          1.5219    0.5914  -12.0324 H         1 <0>         0.1044
     40 H7          5.1064    1.8696   -9.4400 H         1 <0>         0.1345
     41 H8          5.4656    2.2092   -7.0287 H         1 <0>         0.1306
     42 H9          1.4144    1.1159   -6.2638 H         1 <0>         0.1247
     43 H10         1.0443    0.7842   -8.6746 H         1 <0>         0.1308
     44 H11         4.7230    1.6809   -4.7804 H         1 <0>         0.0768
     45 H12         3.0311    1.2290   -4.4616 H         1 <0>         0.0768
     46 H13         2.3237    3.5637   -4.9063 H         1 <0>         0.1102
     47 H14         4.0156    4.0156   -5.2250 H         1 <0>         0.1080
     48 H15         5.1447    4.4093    0.9645 H         1 <0>         0.4337
     49 H16        -2.0555   -0.6917    0.0164 H         1 <0>         0.1426
     50 H17         0.9894   -3.7052   -0.0273 H         1 <0>         0.1363
     51 H18         2.7853   -2.0116   -0.0339 H         1 <0>         0.1362
     52 H19        -0.5002   -4.7969   -0.9106 H         1 <0>         0.0571
     53 H20        -0.4850   -4.8068    0.8693 H         1 <0>         0.0574
     54 H21        -1.9513   -5.3003   -0.0110 H         1 <0>         0.1049
     55 H22        -1.6529    2.4232   -0.9572 H         1 <0>         0.1010
     56 H23        -1.9291    2.0366    0.7618 H         1 <0>         0.1203
     57 H24        -0.4107    3.7726    1.4795 H         1 <0>         0.1334
     58 H25        -1.4739    4.5099    0.2569 H         1 <0>         0.1411
     59 N4          0.4866    4.1255   -0.3993 N.4       1 <0>        -0.5127
     60 H26         0.2720    3.9449   -1.3870 H         1 <0>         0.4412
     61 H27         0.7025    5.1212   -0.2724 H         1 <0>         0.4354
@<TRIPOS>BOND
     1    1    2 1
     2    1   37 1
     3    1   38 1
     4    1   39 1
     5    2    3 1
     6    3    8 ar
     7    3    4 ar
     8    4    5 ar
     9    4   40 1
    10    5    6 ar
    11    5   41 1
    12    6    7 ar
    13    6    9 1
    14    7    8 ar
    15    7   42 1
    16    8   43 1
    17    9   10 1
    18    9   44 1
    19    9   45 1
    20   10   11 1
    21   10   46 1
    22   10   47 1
    23   11   18 am
    24   11   12 am
    25   12   13 2
    26   12   14 1
    27   14   15 2
    28   14   21 1
    29   15   16 1
    30   15   20 1
    31   16   17 1
    32   16   18 am
    33   18   19 2
    34   20   48 1
    35   21   22 1
    36   21   23 1
    37   21   59 1
    38   23   31 1
    39   23   24 2
    40   24   25 1
    41   24   35 1
    42   25   30 ar
    43   25   26 ar
    44   26   27 ar
    45   26   49 1
    46   27   28 ar
    47   27   33 1
    48   28   29 ar
    49   28   50 1
    50   29   30 ar
    51   29   51 1
    52   30   31 1
    53   31   32 1
    54   33   34 1
    55   34   52 1
    56   34   53 1
    57   34   54 1
    58   35   36 1
    59   35   55 1
    60   35   56 1
    61   36   57 1
    62   36   58 1
    63   36   59 1
    64   59   60 1
    65   59   61 1
@<TRIPOS>MOLECULE
ZINC15102702
   71    72     0     0     0
SMALL
USER_CHARGES
N-(6-amino-1-isobutyl-2,4-dioxo-pyrimidin-5-yl)-N-butyl-2-[methyl-[2-(4-methylphenoxy)ethyl]amino]acetamide
@<TRIPOS>ATOM
      1 C1         -1.4184   -9.8730    0.0723 C.3       1 <0>        -0.1550
      2 C2         -0.0749   -9.7241   -0.6444 C.3       1 <0>        -0.1238
      3 C3         -0.1734   -8.6076   -1.6858 C.3       1 <0>        -0.1374
      4 C4          1.1702   -8.4587   -2.4025 C.3       1 <0>         0.0950
      5 N1          1.0758   -7.3896   -3.3997 N.am      1 <0>        -0.4839
      6 C5          0.5831   -7.6712   -4.6914 C.2       1 <0>        -0.1788
      7 C6         -0.5773   -7.0777   -5.1447 C.2       1 <0>         0.5182
      8 N2         -1.0324   -7.3718   -6.4090 N.am      1 <0>        -0.5336
      9 C7         -0.3542   -8.2281   -7.1945 C.2       1 <0>         0.7093
     10 O1         -0.7733   -8.4754   -8.3090 O.2       1 <0>        -0.5116
     11 N3          0.7782   -8.8159   -6.7697 N.am      1 <0>        -0.6616
     12 H1          1.2610   -9.4517   -7.3719 H         1 <0>         0.4454
     13 C8          1.2697   -8.5579   -5.5419 C.2       1 <0>         0.5735
     14 O2          2.3000   -9.0927   -5.1684 O.2       1 <0>        -0.5209
     15 C9         -2.2626   -6.7486   -6.9034 C.3       1 <0>         0.1039
     16 C10        -1.9209   -5.4342   -7.6079 C.3       1 <0>        -0.1116
     17 C11        -1.0856   -5.7266   -8.8559 C.3       1 <0>        -0.1458
     18 C12        -3.2129   -4.7225   -8.0142 C.3       1 <0>        -0.1484
     19 N4         -1.2703   -6.2034   -4.3423 N.pl3     1 <0>        -0.8236
     20 C13         1.4602   -6.1355   -3.0828 C.2       1 <0>         0.4856
     21 O3          1.4586   -5.2680   -3.9309 O.2       1 <0>        -0.5157
     22 C14         1.8915   -5.8126   -1.6754 C.3       1 <0>        -0.0335
     23 C15         1.0868   -3.5325   -1.8019 C.3       1 <0>        -0.0511
     24 C16         2.9054   -4.0931   -0.3050 C.3       1 <0>         0.0034
     25 C17         4.3450   -4.6109   -0.3261 C.3       1 <0>         0.0222
     26 O4          5.0867   -3.9154   -1.3301 O.3       1 <0>        -0.3291
     27 C18         6.3932   -4.2581   -1.4805 C.ar      1 <0>         0.1039
     28 C19         7.1724   -3.6231   -2.4366 C.ar      1 <0>        -0.1354
     29 C20         8.5003   -3.9730   -2.5872 C.ar      1 <0>        -0.0796
     30 C21         9.0528   -4.9551   -1.7861 C.ar      1 <0>        -0.1019
     31 C22         8.2783   -5.5896   -0.8325 C.ar      1 <0>        -0.0809
     32 C23         6.9499   -5.2433   -0.6780 C.ar      1 <0>        -0.1971
     33 C24        10.5017   -5.3348   -1.9525 C.3       1 <0>        -0.1200
     34 H2         -1.6720   -8.9357    0.5674 H         1 <0>         0.0529
     35 H3         -2.1922  -10.1211   -0.6542 H         1 <0>         0.0563
     36 H4         -1.3482  -10.6685    0.8143 H         1 <0>         0.0616
     37 H5          0.1787  -10.6615   -1.1395 H         1 <0>         0.0712
     38 H6          0.6989   -9.4760    0.0822 H         1 <0>         0.0654
     39 H7         -0.4269   -7.6702   -1.1907 H         1 <0>         0.0590
     40 H8         -0.9472   -8.8556   -2.4123 H         1 <0>         0.0748
     41 H9          1.4237   -9.3960   -2.8976 H         1 <0>         0.1064
     42 H10         1.9439   -8.2106   -1.6759 H         1 <0>         0.0838
     43 H11        -2.7532   -7.4211   -7.6070 H         1 <0>         0.1189
     44 H12        -2.9307   -6.5488   -6.0656 H         1 <0>         0.0928
     45 H13        -1.3521   -4.7964   -6.9313 H         1 <0>         0.0732
     46 H14        -0.8421   -4.7902   -9.3579 H         1 <0>         0.0597
     47 H15        -0.1651   -6.2336   -8.5665 H         1 <0>         0.0480
     48 H16        -1.6543   -6.3644   -9.5326 H         1 <0>         0.0696
     49 H17        -3.8080   -4.5141   -7.1251 H         1 <0>         0.0580
     50 H18        -2.9695   -3.7860   -8.5162 H         1 <0>         0.0681
     51 H19        -3.7817   -5.3602   -8.6909 H         1 <0>         0.0658
     52 H20        -0.9196   -5.9633   -3.4703 H         1 <0>         0.4140
     53 H21        -2.1102   -5.8263   -4.6478 H         1 <0>         0.4141
     54 H22         2.7516   -6.4269   -1.4090 H         1 <0>         0.1579
     55 H23         1.0712   -6.0182   -0.9878 H         1 <0>         0.1641
     56 H24         1.4092   -2.4952   -1.8920 H         1 <0>         0.1280
     57 H25         0.5751   -3.8346   -2.7156 H         1 <0>         0.1313
     58 H26         0.4066   -3.6292   -0.9556 H         1 <0>         0.1235
     59 H27         2.3560   -4.5798    0.5009 H         1 <0>         0.1539
     60 H28         2.9094   -3.0153   -0.1428 H         1 <0>         0.1486
     61 H29         4.3441   -5.6779   -0.5488 H         1 <0>         0.0835
     62 H30         4.8057   -4.4434    0.6475 H         1 <0>         0.1124
     63 H31         6.7413   -2.8561   -3.0628 H         1 <0>         0.1331
     64 H32         9.1062   -3.4820   -3.3344 H         1 <0>         0.1360
     65 H33         8.7120   -6.3567   -0.2082 H         1 <0>         0.1310
     66 H34         6.3454   -5.7389    0.0673 H         1 <0>         0.1270
     67 H35        11.1172   -4.7133   -1.3021 H         1 <0>         0.0754
     68 H36        10.6355   -6.3833   -1.6862 H         1 <0>         0.0700
     69 H37        10.8004   -5.1824   -2.9897 H         1 <0>         0.0709
     70 N5          2.2773   -4.3872   -1.6102 N.4       1 <0>        -0.3850
     71 H38         2.9532   -4.1901   -2.3576 H         1 <0>         0.4452
@<TRIPOS>BOND
     1    1    2 1
     2    1   34 1
     3    1   35 1
     4    1   36 1
     5    2    3 1
     6    2   37 1
     7    2   38 1
     8    3    4 1
     9    3   39 1
    10    3   40 1
    11    4    5 1
    12    4   41 1
    13    4   42 1
    14    5    6 1
    15    5   20 am
    16    6   13 1
    17    6    7 2
    18    7    8 1
    19    7   19 1
    20    8    9 am
    21    8   15 1
    22    9   10 2
    23    9   11 am
    24   11   12 1
    25   11   13 am
    26   13   14 2
    27   15   16 1
    28   15   43 1
    29   15   44 1
    30   16   17 1
    31   16   18 1
    32   16   45 1
    33   17   46 1
    34   17   47 1
    35   17   48 1
    36   18   49 1
    37   18   50 1
    38   18   51 1
    39   19   52 1
    40   19   53 1
    41   20   21 2
    42   20   22 1
    43   22   54 1
    44   22   55 1
    45   22   70 1
    46   23   56 1
    47   23   57 1
    48   23   58 1
    49   23   70 1
    50   24   25 1
    51   24   59 1
    52   24   60 1
    53   24   70 1
    54   25   26 1
    55   25   61 1
    56   25   62 1
    57   26   27 1
    58   27   32 ar
    59   27   28 ar
    60   28   29 ar
    61   28   63 1
    62   29   30 ar
    63   29   64 1
    64   30   31 ar
    65   30   33 1
    66   31   32 ar
    67   31   65 1
    68   32   66 1
    69   33   67 1
    70   33   68 1
    71   33   69 1
    72   70   71 1
@<TRIPOS>MOLECULE
ZINC24897596
   54    55     0     0     0
SMALL
USER_CHARGES
3-[[2-[(5-chloro-2-methoxy-phenyl)amino]-2-oxo-ethyl]-methyl-amino]-N-(4-sulfamoylphenyl)propanamide
@<TRIPOS>ATOM
      1 C1         -0.0307    1.4572    2.6095 C.3       1 <0>        -0.0615
      2 N1         -0.8027    1.8798    1.4333 N.4       1 <0>        -0.3887
      3 C2         -1.0967    3.3181    1.4856 C.3       1 <0>         0.0079
      4 C3         -2.0355    3.6044    2.6594 C.3       1 <0>        -0.1725
      5 C4         -2.3371    5.0799    2.7130 C.2       1 <0>         0.5228
      6 O1         -1.8493    5.8289    1.8932 O.2       1 <0>        -0.5090
      7 N2         -3.1490    5.5673    3.6721 N.am      1 <0>        -0.6776
      8 C5         -3.5271    6.9144    3.6506 C.ar      1 <0>         0.1990
      9 C6         -3.8833    7.5560    4.8296 C.ar      1 <0>        -0.1661
     10 C7         -4.2496    8.8875    4.8060 C.ar      1 <0>        -0.0003
     11 C8         -4.2742    9.5782    3.6082 C.ar      1 <0>        -0.6758
     12 C9         -3.9260    8.9405    2.4317 C.ar      1 <0>         0.0103
     13 C10        -3.5524    7.6110    2.4495 C.ar      1 <0>        -0.1530
     14 S1         -4.7497   11.2746    3.5813 S.o2      1 <0>         2.6352
     15 O2         -4.5025   11.7864    4.8837 O.2       1 <0>        -0.9830
     16 O3         -4.1657   11.8416    2.4165 O.2       1 <0>        -0.9491
     17 N3         -6.3900   11.3199    3.3584 N.pl3     1 <0>        -1.1623
     18 C11        -0.1020    1.5306    0.1903 C.3       1 <0>        -0.0249
     19 C12        -0.0353    0.0311    0.0556 C.2       1 <0>         0.5023
     20 O4         -0.5235   -0.6770    0.9108 O.2       1 <0>        -0.5206
     21 N4          0.5668   -0.5231   -1.0153 N.am      1 <0>        -0.6459
     22 C13         0.7152   -1.9142   -1.0937 C.ar      1 <0>         0.1059
     23 C14        -0.2648   -2.7483   -0.5757 C.ar      1 <0>        -0.0721
     24 C15        -0.1177   -4.1210   -0.6578 C.ar      1 <0>        -0.0575
     25 C16         1.0097   -4.6650   -1.2475 C.ar      1 <0>        -0.0664
     26 C17         1.9921   -3.8391   -1.7613 C.ar      1 <0>        -0.1778
     27 C18         1.8498   -2.4630   -1.6867 C.ar      1 <0>         0.1233
     28 O5          2.8157   -1.6497   -2.1917 O.3       1 <0>        -0.3179
     29 C19         3.9514   -2.2823   -2.7853 C.3       1 <0>         0.0203
     30 Cl1        -1.3473   -5.1638   -0.0141 Cl        1 <0>        -0.0510
     31 H1          0.1751    0.3786    2.5448 H         1 <0>         0.1415
     32 H2         -0.6086    1.6661    3.5218 H         1 <0>         0.1267
     33 H3          0.9195    2.0105    2.6426 H         1 <0>         0.1200
     34 H4         -0.1601    3.8791    1.6199 H         1 <0>         0.1415
     35 H5         -1.5785    3.6283    0.5466 H         1 <0>         0.1439
     36 H6         -2.9721    3.0433    2.5251 H         1 <0>         0.1261
     37 H7         -1.5537    3.2943    3.5984 H         1 <0>         0.1241
     38 H8         -3.5144    4.9061    4.4717 H         1 <0>         0.4457
     39 H9         -3.8694    7.0157    5.7646 H         1 <0>         0.1396
     40 H10        -4.5215    9.3885    5.7233 H         1 <0>         0.1492
     41 H11        -3.9458    9.4828    1.4979 H         1 <0>         0.1487
     42 H12        -3.2799    7.1137    1.5303 H         1 <0>         0.1508
     43 H13        -6.7282   12.3664    3.3357 H         1 <0>         0.4176
     44 H14        -6.8871   10.7918    4.1854 H         1 <0>         0.4090
     45 H15        -0.6458    1.9521   -0.6680 H         1 <0>         0.1655
     46 H16         0.9178    1.9422    0.2162 H         1 <0>         0.1631
     47 H17         0.9417    0.1167   -1.8278 H         1 <0>         0.4530
     48 H18        -1.1438   -2.3259   -0.1117 H         1 <0>         0.1557
     49 H19         1.1226   -5.7375   -1.3063 H         1 <0>         0.1451
     50 H20         2.8710   -4.2668   -2.2206 H         1 <0>         0.1487
     51 H21         4.6496   -1.5146   -3.1503 H         1 <0>         0.1105
     52 H22         3.6233   -2.9097   -3.6272 H         1 <0>         0.0648
     53 H23         4.4554   -2.9095   -2.0353 H         1 <0>         0.0635
     54 H24        -1.7602    1.3384    1.4451 H         1 <0>         0.4516
@<TRIPOS>BOND
     1    1    2 1
     2    1   31 1
     3    1   32 1
     4    1   33 1
     5    2    3 1
     6    2   18 1
     7    2   54 1
     8    3    4 1
     9    3   34 1
    10    3   35 1
    11    4    5 1
    12    4   36 1
    13    4   37 1
    14    5    6 2
    15    5    7 am
    16    7    8 1
    17    7   38 1
    18    8   13 ar
    19    8    9 ar
    20    9   10 ar
    21    9   39 1
    22   10   11 ar
    23   10   40 1
    24   11   12 ar
    25   11   14 1
    26   12   13 ar
    27   12   41 1
    28   13   42 1
    29   14   15 2
    30   14   16 2
    31   14   17 1
    32   17   43 1
    33   17   44 1
    34   18   19 1
    35   18   45 1
    36   18   46 1
    37   19   20 2
    38   19   21 am
    39   21   22 1
    40   21   47 1
    41   22   27 ar
    42   22   23 ar
    43   23   24 ar
    44   23   48 1
    45   24   25 ar
    46   24   30 1
    47   25   26 ar
    48   25   49 1
    49   26   27 ar
    50   26   50 1
    51   27   28 1
    52   28   29 1
    53   29   51 1
    54   29   52 1
    55   29   53 1
@<TRIPOS>MOLECULE
ZINC33923920
   58    61     0     0     0
SMALL
USER_CHARGES

@<TRIPOS>ATOM
      1 C1          0.0713    1.4316   -0.1145 C.3       1 <0>        -0.1867
      2 C2         -0.3388   -0.0417   -0.1589 C.3       1 <0>         0.0267
      3 H1         -1.3590   -0.1457    0.2105 H         1 <0>         0.1461
      4 C3         -0.2652   -0.5478   -1.6012 C.3       1 <0>        -0.1383
      5 C4         -0.6767   -2.0223   -1.6406 C.3       1 <0>        -0.1378
      6 C5          0.2293   -2.8203   -0.6985 C.3       1 <0>        -0.1436
      7 C6          0.1373   -2.2301    0.7103 C.3       1 <0>        -0.0154
      8 N1          0.5691   -0.8273    0.6854 N.4       1 <0>        -0.3749
      9 C7          0.5540   -0.2883    2.0519 C.3       1 <0>         0.0508
     10 C8          1.5753   -1.0139    2.8894 C.2       1 <0>         0.0784
     11 C9          1.3708   -2.1493    3.6210 C.2       1 <0>        -0.0406
     12 N2          2.5254   -2.4808    4.2246 N.2       1 <0>        -0.1596
     13 N3          3.4356   -1.6243    3.9156 N.2       1 <0>         0.0108
     14 N4          2.8717   -0.6700    3.0569 N.pl3     1 <0>        -0.2868
     15 C10         3.5244    0.4285    2.4860 C.2       1 <0>         0.2858
     16 C11         4.9342    0.7819    2.6751 C.2       1 <0>         0.3587
     17 N5          5.1815    1.8637    1.9889 N.2       1 <0>        -0.3101
     18 O1          3.9818    2.2511    1.3426 O.3       1 <0>         0.0805
     19 N6          2.9838    1.3080    1.6912 N.2       1 <0>        -0.2861
     20 N7          5.8511    0.0840    3.4531 N.pl3     1 <0>        -0.7971
     21 C12         0.0981   -2.8864    3.7307 C.2       1 <0>         0.6138
     22 O2         -0.8872   -2.4906    3.1372 O.2       1 <0>        -0.5010
     23 N8          0.0266   -3.9986    4.4886 N.am      1 <0>        -0.5603
     24 N9         -1.1823   -4.6988    4.5929 N.2       1 <0>        -0.2453
     25 C13        -1.2842   -5.6995    5.4137 C.2       1 <0>         0.1591
     26 C14        -0.3531   -5.8184    6.5497 C.ar      1 <0>        -0.1340
     27 C15        -0.2645   -7.0191    7.2602 C.ar      1 <0>        -0.0531
     28 C16         0.6066   -7.1267    8.3213 C.ar      1 <0>        -0.0976
     29 C17         1.3977   -6.0418    8.6870 C.ar      1 <0>        -0.0597
     30 C18         1.3117   -4.8449    7.9822 C.ar      1 <0>        -0.1307
     31 C19         0.4477   -4.7325    6.9159 C.ar      1 <0>        -0.1055
     32 S1          2.5105   -6.1838   10.0457 S.3       1 <0>        -0.0892
     33 C20         3.3025   -4.5543   10.1365 C.3       1 <0>        -0.1514
     34 H2          1.0915    1.5361   -0.4839 H         1 <0>         0.0851
     35 H3         -0.6033    2.0156   -0.7406 H         1 <0>         0.1122
     36 H4          0.0180    1.7928    0.9125 H         1 <0>         0.0812
     37 H5         -0.9410    0.0356   -2.2265 H         1 <0>         0.1179
     38 H6          0.7548   -0.4445   -1.9715 H         1 <0>         0.0872
     39 H7         -1.7135   -2.1201   -1.3188 H         1 <0>         0.0869
     40 H8         -0.5717   -2.4030   -2.6565 H         1 <0>         0.0969
     41 H9         -0.0930   -3.8614   -0.6787 H         1 <0>         0.1155
     42 H10         1.2595   -2.7642   -1.0501 H         1 <0>         0.0823
     43 H11        -0.8931   -2.2869    1.0610 H         1 <0>         0.1581
     44 H12         0.7811   -2.7960    1.3836 H         1 <0>         0.1113
     45 H13         0.7944    0.7746    2.0258 H         1 <0>         0.1615
     46 H14        -0.4362   -0.4263    2.4860 H         1 <0>         0.1851
     47 H15         5.5743   -0.7139    3.9303 H         1 <0>         0.4289
     48 H16         6.7675    0.3949    3.5188 H         1 <0>         0.4312
     49 H17         0.8123   -4.3142    4.9619 H         1 <0>         0.4069
     50 H18        -2.0513   -6.4448    5.2639 H         1 <0>         0.1992
     51 H19        -0.8788   -7.8612    6.9775 H         1 <0>         0.1444
     52 H20         0.6755   -8.0540    8.8706 H         1 <0>         0.1405
     53 H21         1.9267   -4.0047    8.2690 H         1 <0>         0.1302
     54 H22         0.3851   -3.8050    6.3661 H         1 <0>         0.1304
     55 H23         4.0181   -4.5434   10.9586 H         1 <0>         0.1161
     56 H24         3.8216   -4.3500    9.2001 H         1 <0>         0.0863
     57 H25         2.5435   -3.7904   10.3053 H         1 <0>         0.0862
     58 H26         1.5055   -0.7708    0.3140 H         1 <0>         0.4128
@<TRIPOS>BOND
     1    1    2 1
     2    1   34 1
     3    1   35 1
     4    1   36 1
     5    2    3 1
     6    2    8 1
     7    2    4 1
     8    4    5 1
     9    4   37 1
    10    4   38 1
    11    5    6 1
    12    5   39 1
    13    5   40 1
    14    6    7 1
    15    6   41 1
    16    6   42 1
    17    7    8 1
    18    7   43 1
    19    7   44 1
    20    8    9 1
    21    8   58 1
    22    9   10 1
    23    9   45 1
    24    9   46 1
    25   10   14 1
    26   10   11 2
    27   11   12 1
    28   11   21 1
    29   12   13 2
    30   13   14 1
    31   14   15 1
    32   15   19 2
    33   15   16 1
    34   16   17 2
    35   16   20 1
    36   17   18 1
    37   18   19 1
    38   20   47 1
    39   20   48 1
    40   21   22 2
    41   21   23 am
    42   23   24 1
    43   23   49 1
    44   24   25 2
    45   25   26 1
    46   25   50 1
    47   26   31 ar
    48   26   27 ar
    49   27   28 ar
    50   27   51 1
    51   28   29 ar
    52   28   52 1
    53   29   30 ar
    54   29   32 1
    55   30   31 ar
    56   30   53 1
    57   31   54 1
    58   32   33 1
    59   33   55 1
    60   33   56 1
    61   33   57 1
@<TRIPOS>MOLECULE
ZINC33558135
   60    63     0     0     0
SMALL
USER_CHARGES

@<TRIPOS>ATOM
      1 C1          0.8695    0.6738   -1.8078 C.3       1 <0>        -0.1641
      2 C2          1.1179   -0.8314   -1.6911 C.3       1 <0>        -0.0996
      3 C3          2.2627   -1.2228   -2.5896 C.ar      1 <0>        -0.0343
      4 C4          2.0128   -1.6914   -3.8637 C.ar      1 <0>        -0.1037
      5 C5          3.0625   -2.0504   -4.6895 C.ar      1 <0>        -0.0572
      6 C6          4.3679   -1.9427   -4.2441 C.ar      1 <0>        -0.1070
      7 C7          4.6293   -1.4759   -2.9721 C.ar      1 <0>        -0.0690
      8 C8          3.5756   -1.1068   -2.1379 C.ar      1 <0>        -0.0152
      9 N1          3.8314   -0.6339   -0.8679 N.ar      1 <0>        -0.3892
     10 C9          3.9124   -1.4929    0.1500 C.ar      1 <0>         0.5766
     11 N2          3.7433   -2.8472   -0.0541 N.pl3     1 <0>        -0.7806
     12 C10         4.1748   -0.9858    1.4367 C.ar      1 <0>        -0.3132
     13 C11         4.3266   -1.5636    2.7164 C.2       1 <0>         0.1625
     14 N3          4.5628   -0.6118    3.5735 N.2       1 <0>        -0.2136
     15 N4          4.5788    0.6238    2.9146 N.pl3     1 <0>        -0.4363
     16 H1          4.7338    1.4870    3.3292 H         1 <0>         0.4649
     17 C12         4.3397    0.4051    1.5903 C.ar      1 <0>         0.4058
     18 N5          4.2424    1.1903    0.5185 N.ar      1 <0>        -0.5133
     19 C13         3.9999    0.6771   -0.6751 C.ar      1 <0>         0.3722
     20 S1          3.8885    1.7610   -2.0597 S.3       1 <0>         0.1947
     21 C14         4.1755    3.4068   -1.3529 C.3       1 <0>        -0.1753
     22 C15         4.1064    4.4420   -2.4459 C.2       1 <0>         0.5327
     23 O1          3.8852    4.1028   -3.5893 O.2       1 <0>        -0.5046
     24 N6          4.2903    5.7446   -2.1530 N.am      1 <0>        -0.6530
     25 C16         4.1196    6.7170   -3.1471 C.ar      1 <0>         0.0903
     26 C17         4.9039    7.8628   -3.1398 C.ar      1 <0>        -0.0940
     27 C18         4.7355    8.8206   -4.1201 C.ar      1 <0>        -0.1328
     28 C19         3.7828    8.6385   -5.1119 C.ar      1 <0>         0.1303
     29 C20         2.9986    7.4942   -5.1195 C.ar      1 <0>        -0.1911
     30 C21         3.1702    6.5327   -4.1433 C.ar      1 <0>        -0.0739
     31 O2          3.6172    9.5822   -6.0766 O.3       1 <0>        -0.3130
     32 C22         2.6181    9.3296   -7.0666 C.3       1 <0>         0.0535
     33 C23         2.5782   10.4931   -8.0594 C.3       1 <0>        -0.1547
     34 C24         4.2311   -3.0332    3.0363 C.3       1 <0>        -0.1026
     35 H2          1.7674    1.2145   -1.5086 H         1 <0>         0.0552
     36 H3          0.6227    0.9223   -2.8400 H         1 <0>         0.0751
     37 H4          0.0415    0.9569   -1.1579 H         1 <0>         0.0709
     38 H5          1.3648   -1.0799   -0.6589 H         1 <0>         0.0604
     39 H6          0.2200   -1.3721   -1.9902 H         1 <0>         0.0980
     40 H7          0.9956   -1.7781   -4.2162 H         1 <0>         0.1490
     41 H8          2.8624   -2.4166   -5.6856 H         1 <0>         0.1476
     42 H9          5.1838   -2.2249   -4.8930 H         1 <0>         0.1496
     43 H10         5.6487   -1.3926   -2.6252 H         1 <0>         0.1408
     44 H11         3.4467   -3.1742   -0.9178 H         1 <0>         0.4300
     45 H12         3.4129    3.6184   -0.6034 H         1 <0>         0.1433
     46 H13         5.1606    3.4354   -0.8871 H         1 <0>         0.1422
     47 H14         4.5408    6.0088   -1.2539 H         1 <0>         0.4157
     48 H15         5.6451    8.0050   -2.3673 H         1 <0>         0.1354
     49 H16         5.3454    9.7119   -4.1146 H         1 <0>         0.1398
     50 H17         2.2566    7.3534   -5.8915 H         1 <0>         0.1343
     51 H18         2.5630    5.6396   -4.1522 H         1 <0>         0.1362
     52 H19         2.8568    8.4076   -7.5967 H         1 <0>         0.0636
     53 H20         1.6457    9.2301   -6.5843 H         1 <0>         0.0636
     54 H21         1.8162   10.3004   -8.8146 H         1 <0>         0.0811
     55 H22         2.3395   11.4151   -7.5293 H         1 <0>         0.0682
     56 H23         3.5507   10.5926   -8.5417 H         1 <0>         0.0681
     57 H24         5.1926   -3.5098    2.8455 H         1 <0>         0.1056
     58 H25         3.9645   -3.1601    4.0856 H         1 <0>         0.1080
     59 H26         3.4670   -3.4926    2.4092 H         1 <0>         0.0857
     60 H27         3.9211   -3.4721    0.6661 H         1 <0>         0.4405
@<TRIPOS>BOND
     1    1    2 1
     2    1   35 1
     3    1   36 1
     4    1   37 1
     5    2    3 1
     6    2   38 1
     7    2   39 1
     8    3    8 ar
     9    3    4 ar
    10    4    5 ar
    11    4   40 1
    12    5    6 ar
    13    5   41 1
    14    6    7 ar
    15    6   42 1
    16    7    8 ar
    17    7   43 1
    18    8    9 1
    19    9   19 ar
    20    9   10 ar
    21   10   11 1
    22   10   12 ar
    23   11   44 1
    24   11   60 1
    25   12   17 ar
    26   12   13 1
    27   13   14 2
    28   13   34 1
    29   14   15 1
    30   15   16 1
    31   15   17 1
    32   17   18 ar
    33   18   19 ar
    34   19   20 1
    35   20   21 1
    36   21   22 1
    37   21   45 1
    38   21   46 1
    39   22   23 2
    40   22   24 am
    41   24   25 1
    42   24   47 1
    43   25   30 ar
    44   25   26 ar
    45   26   27 ar
    46   26   48 1
    47   27   28 ar
    48   27   49 1
    49   28   29 ar
    50   28   31 1
    51   29   30 ar
    52   29   50 1
    53   30   51 1
    54   31   32 1
    55   32   33 1
    56   32   52 1
    57   32   53 1
    58   33   54 1
    59   33   55 1
    60   33   56 1
    61   34   57 1
    62   34   58 1
    63   34   59 1
@<TRIPOS>MOLECULE
ZINC09309995
   49    50     0     0     0
SMALL
USER_CHARGES
[1,5-bis(4-chlorophenyl)-5-ureidoimino-pentylidene]aminourea
@<TRIPOS>ATOM
      1 C1         -2.1467    3.3185   -3.7032 C.ar      1 <0>        -0.1038
      2 C2         -3.2127    2.8363   -4.4332 C.ar      1 <0>        -0.1030
      3 C3         -4.5049    3.2163   -4.1109 C.ar      1 <0>        -0.0206
      4 C4         -4.7359    4.0777   -3.0514 C.ar      1 <0>        -0.1071
      5 C5         -3.6790    4.5628   -2.3102 C.ar      1 <0>        -0.0737
      6 C6         -2.3733    4.1835   -2.6300 C.ar      1 <0>        -0.0999
      7 C7         -1.2382    4.6989   -1.8418 C.2       1 <0>         0.1515
      8 N1         -0.2039    3.9463   -1.6253 N.2       1 <0>        -0.2381
      9 N2         -0.2294    2.5963   -1.9990 N.am      1 <0>        -0.5925
     10 C8          0.8921    1.8533   -1.9178 C.2       1 <0>         0.7311
     11 O1          0.8700    0.6816   -2.2422 O.2       1 <0>        -0.5833
     12 N3          2.0395    2.4104   -1.4823 N.am      1 <0>        -0.8490
     13 C9         -1.2798    6.0999   -1.2880 C.3       1 <0>        -0.0635
     14 C10         0.0110    6.3818   -0.5165 C.3       1 <0>        -0.1077
     15 C11        -0.0313    7.8042    0.0457 C.3       1 <0>        -0.0628
     16 C12         1.2401    8.0819    0.8056 C.2       1 <0>         0.1501
     17 N4          2.1554    7.1668    0.8951 N.2       1 <0>        -0.2369
     18 N5          3.3963    7.4711    1.4699 N.am      1 <0>        -0.5922
     19 C13         4.3602    6.5309    1.5293 C.2       1 <0>         0.7318
     20 O2          5.4372    6.7950    2.0281 O.2       1 <0>        -0.5833
     21 N6          4.1302    5.2980    1.0358 N.am      1 <0>        -0.8488
     22 C14         1.4439    9.3940    1.4476 C.ar      1 <0>        -0.0986
     23 C15         2.0373    9.4727    2.7097 C.ar      1 <0>        -0.1044
     24 C16         2.2293   10.7031    3.3025 C.ar      1 <0>        -0.1020
     25 C17         1.8257   11.8581    2.6537 C.ar      1 <0>        -0.0215
     26 C18         1.2320   11.7865    1.4046 C.ar      1 <0>        -0.1060
     27 C19         1.0390   10.5628    0.7986 C.ar      1 <0>        -0.0741
     28 Cl1         2.0655   13.4025    3.4094 Cl        1 <0>        -0.0579
     29 Cl2        -5.8409    2.6096   -5.0387 Cl        1 <0>        -0.0579
     30 H1         -1.1391    3.0250   -3.9584 H         1 <0>         0.1381
     31 H2         -3.0392    2.1640   -5.2604 H         1 <0>         0.1413
     32 H3         -5.7460    4.3699   -2.8049 H         1 <0>         0.1417
     33 H4         -3.8605    5.2342   -1.4839 H         1 <0>         0.1430
     34 H5         -1.0543    2.1963   -2.3162 H         1 <0>         0.4055
     35 H6          2.8476    1.8767   -1.4277 H         1 <0>         0.4151
     36 H7          2.0571    3.3451   -1.2236 H         1 <0>         0.4070
     37 H8         -1.3761    6.8119   -2.1077 H         1 <0>         0.0957
     38 H9         -2.1332    6.2003   -0.6174 H         1 <0>         0.0963
     39 H10         0.1073    5.6698    0.3032 H         1 <0>         0.0799
     40 H11         0.8644    6.2814   -1.1871 H         1 <0>         0.0797
     41 H12        -0.1275    8.5162   -0.7740 H         1 <0>         0.0965
     42 H13        -0.8847    7.9046    0.7163 H         1 <0>         0.0951
     43 H14         3.5618    8.3585    1.8250 H         1 <0>         0.4044
     44 H15         3.2711    5.0873    0.6379 H         1 <0>         0.4073
     45 H16         4.8239    4.6214    1.0786 H         1 <0>         0.4150
     46 H17         2.3484    8.5724    3.2186 H         1 <0>         0.1364
     47 H18         2.6920   10.7657    4.2763 H         1 <0>         0.1415
     48 H19         0.9198   12.6910    0.9038 H         1 <0>         0.1418
     49 H20         0.5763   10.5084   -0.1757 H         1 <0>         0.1427
@<TRIPOS>BOND
     1    1    6 ar
     2    1    2 ar
     3    1   30 1
     4    2    3 ar
     5    2   31 1
     6    3    4 ar
     7    3   29 1
     8    4    5 ar
     9    4   32 1
    10    5    6 ar
    11    5   33 1
    12    6    7 1
    13    7    8 2
    14    7   13 1
    15    8    9 1
    16    9   10 am
    17    9   34 1
    18   10   11 2
    19   10   12 am
    20   12   35 1
    21   12   36 1
    22   13   14 1
    23   13   37 1
    24   13   38 1
    25   14   15 1
    26   14   39 1
    27   14   40 1
    28   15   16 1
    29   15   41 1
    30   15   42 1
    31   16   17 2
    32   16   22 1
    33   17   18 1
    34   18   19 am
    35   18   43 1
    36   19   20 2
    37   19   21 am
    38   21   44 1
    39   21   45 1
    40   22   27 ar
    41   22   23 ar
    42   23   24 ar
    43   23   46 1
    44   24   25 ar
    45   24   47 1
    46   25   26 ar
    47   25   28 1
    48   26   27 ar
    49   26   48 1
    50   27   49 1
@<TRIPOS>MOLECULE
ZINC22048747
   57    59     0     0     0
SMALL
USER_CHARGES
(2S,3R,4S,5R,6R)-2-[(2R,3S,4R,5R,6S)-6-(4-aminophenoxy)-4,5-dihydroxy-2-(hydroxymethyl)tetrahydropyran-3-yl]oxy-6-(hydroxymethyl)tetrahydropyran-3,4,5-triol
@<TRIPOS>ATOM
      1 C1         -1.2516    3.0374    0.0302 C.ar      1 <0>        -0.1673
      2 C2         -2.4574    3.7108    0.0333 C.ar      1 <0>        -0.1306
      3 C3         -3.6488    3.0007    0.0351 C.ar      1 <0>         0.0615
      4 C4         -3.6305    1.6138    0.0280 C.ar      1 <0>        -0.0953
      5 C5         -2.4256    0.9388    0.0187 C.ar      1 <0>        -0.1720
      6 C6         -1.2324    1.6490    0.0169 C.ar      1 <0>         0.1954
      7 N1         -0.0111    0.9658    0.0074 N.pl3     1 <0>        -0.9036
      8 O1         -4.8357    3.6646    0.0443 O.3       1 <0>        -0.2882
      9 C7         -4.7803    5.0925    0.0513 C.3       1 <0>         0.2681
     10 H1         -4.1199    5.4025   -0.7720 H         1 <0>         0.0713
     11 C8         -6.1978    5.6590   -0.0647 C.3       1 <0>         0.1221
     12 H2         -6.8601    5.2473    0.7111 H         1 <0>         0.0778
     13 C9         -6.1355    7.1880    0.0040 C.3       1 <0>         0.0765
     14 H3         -5.6245    7.6114   -0.8733 H         1 <0>         0.0634
     15 C10        -5.4490    7.6019    1.3093 C.3       1 <0>         0.0380
     16 H4         -6.0556    7.3335    2.1868 H         1 <0>         0.0840
     17 C11        -4.0604    6.9603    1.3722 C.3       1 <0>         0.1082
     18 H5         -3.4390    7.2669    0.5179 H         1 <0>         0.0800
     19 O2         -4.1881    5.5405    1.2722 O.3       1 <0>        -0.3765
     20 C12        -3.3918    7.3202    2.7005 C.3       1 <0>         0.0984
     21 O3         -2.0533    6.8198    2.7110 O.3       1 <0>        -0.5920
     22 O4         -5.3214    9.0245    1.3516 O.3       1 <0>        -0.3420
     23 C13        -6.4336    9.6902    1.9533 C.3       1 <0>         0.2733
     24 H6         -6.6163    9.2151    2.9284 H         1 <0>         0.0752
     25 C14        -6.1366   11.1885    2.0571 C.3       1 <0>         0.1204
     26 H7         -5.8552   11.6117    1.0815 H         1 <0>         0.0879
     27 C15        -7.3562   11.9031    2.6473 C.3       1 <0>         0.0980
     28 H8         -7.5298   11.6096    3.6931 H         1 <0>         0.0809
     29 C16        -8.5783   11.6120    1.7709 C.3       1 <0>         0.0609
     30 H9         -9.4785   12.1149    2.1540 H         1 <0>         0.0771
     31 C17        -8.7810   10.0974    1.6782 C.3       1 <0>         0.0668
     32 H10        -8.9288    9.6520    2.6731 H         1 <0>         0.0871
     33 O5         -7.5992    9.4912    1.1509 O.3       1 <0>        -0.3675
     34 C18        -9.9639    9.7965    0.7557 C.3       1 <0>         0.0885
     35 O6        -10.2264    8.3918    0.7605 O.3       1 <0>        -0.5784
     36 O7         -8.3666   12.1477    0.4632 O.3       1 <0>        -0.5733
     37 O8         -7.1157   13.3113    2.6798 O.3       1 <0>        -0.5832
     38 O9         -5.0049   11.3933    2.9052 O.3       1 <0>        -0.5852
     39 O10        -7.4603    7.7225   -0.0297 O.3       1 <0>        -0.5882
     40 O11        -6.7710    5.2600   -1.3114 O.3       1 <0>        -0.5807
     41 H11        -0.3240    3.5905    0.0337 H         1 <0>         0.1197
     42 H12        -2.4726    4.7907    0.0389 H         1 <0>         0.1273
     43 H13        -4.5586    1.0616    0.0294 H         1 <0>         0.1277
     44 H14        -2.4115   -0.1411    0.0131 H         1 <0>         0.1242
     45 H15         0.0038   -0.1340   -0.0031 H         1 <0>         0.4134
     46 H16         0.9340    1.5286    0.0105 H         1 <0>         0.4134
     47 H17        -3.3754    8.4138    2.8183 H         1 <0>         0.0734
     48 H18        -3.9579    6.8706    3.5296 H         1 <0>         0.0501
     49 H19        -1.4121    6.9828    3.5898 H         1 <0>         0.4114
     50 H20       -10.8533   10.3370    1.1118 H         1 <0>         0.0625
     51 H21        -9.7229   10.1210   -0.2673 H         1 <0>         0.0564
     52 H22       -11.0468    7.9835    0.1520 H         1 <0>         0.4149
     53 H23        -9.1415   12.0352   -0.3093 H         1 <0>         0.4081
     54 H24        -7.8849   13.9917    3.0741 H         1 <0>         0.4170
     55 H25        -4.6407   12.4129    3.0997 H         1 <0>         0.4244
     56 H26        -7.6155    8.8107    0.0106 H         1 <0>         0.3986
     57 H27        -7.7920    5.5748   -1.5731 H         1 <0>         0.4204
@<TRIPOS>BOND
     1    1    6 ar
     2    1    2 ar
     3    1   41 1
     4    2    3 ar
     5    2   42 1
     6    3    4 ar
     7    3    8 1
     8    4    5 ar
     9    4   43 1
    10    5    6 ar
    11    5   44 1
    12    6    7 1
    13    7   45 1
    14    7   46 1
    15    8    9 1
    16    9   10 1
    17    9   19 1
    18    9   11 1
    19   11   12 1
    20   11   13 1
    21   11   40 1
    22   13   14 1
    23   13   15 1
    24   13   39 1
    25   15   16 1
    26   15   17 1
    27   15   22 1
    28   17   18 1
    29   17   19 1
    30   17   20 1
    31   20   21 1
    32   20   47 1
    33   20   48 1
    34   21   49 1
    35   22   23 1
    36   23   24 1
    37   23   33 1
    38   23   25 1
    39   25   26 1
    40   25   27 1
    41   25   38 1
    42   27   28 1
    43   27   29 1
    44   27   37 1
    45   29   30 1
    46   29   31 1
    47   29   36 1
    48   31   32 1
    49   31   33 1
    50   31   34 1
    51   34   35 1
    52   34   50 1
    53   34   51 1
    54   35   52 1
    55   36   53 1
    56   37   54 1
    57   38   55 1
    58   39   56 1
    59   40   57 1
@<TRIPOS>MOLECULE
ZINC35457494
   53    55     0     0     0
SMALL
USER_CHARGES

@<TRIPOS>ATOM
      1 C1         -0.0167    1.3809    0.0096 C.ar      1 <0>        -0.1248
      2 C2          1.1626    2.0932    0.0022 C.ar      1 <0>        -0.0544
      3 C3          2.3869    1.4180   -0.0131 C.ar      1 <0>        -0.1430
      4 C4          2.4059    0.0175   -0.0209 C.ar      1 <0>         0.1495
      5 C5          1.2063   -0.6874   -0.0132 C.ar      1 <0>         0.0684
      6 C6          0.0021   -0.0041    0.0020 C.ar      1 <0>        -0.0924
      7 O1          1.2166   -2.0473   -0.0211 O.3       1 <0>        -0.4818
      8 O2          3.5885   -0.6487   -0.0362 O.3       1 <0>        -0.4672
      9 C7          3.6510    2.1763   -0.0216 C.2       1 <0>         0.5106
     10 O3          4.7132    1.5864   -0.0350 O.2       1 <0>        -0.4827
     11 O4          3.6286    3.5236   -0.0146 O.3       1 <0>        -0.3469
     12 C8          4.8908    4.1934   -0.0235 C.3       1 <0>         0.1232
     13 C9          4.6686    5.6839   -0.0138 C.ar      1 <0>        -0.1036
     14 C10         3.3835    6.1906    0.0070 C.ar      1 <0>        -0.0908
     15 C11         3.1790    7.5621    0.0164 C.ar      1 <0>         0.0763
     16 C12         4.2647    8.4254    0.0049 C.ar      1 <0>        -0.1021
     17 C13         5.5494    7.9189   -0.0159 C.ar      1 <0>        -0.1628
     18 C14         5.7541    6.5469   -0.0200 C.ar      1 <0>         0.1276
     19 O5          7.0191    6.0482   -0.0349 O.3       1 <0>        -0.2941
     20 C15         8.0896    6.9948   -0.0405 C.3       1 <0>         0.2285
     21 H1          7.9167    7.7343   -0.8223 H         1 <0>         0.0743
     22 C16         9.4111    6.2694   -0.3071 C.3       1 <0>         0.0619
     23 H2          9.5648    5.5018    0.4514 H         1 <0>         0.0929
     24 C17        10.5600    7.2809   -0.2519 C.3       1 <0>         0.0866
     25 H3         10.4329    8.0206   -1.0424 H         1 <0>         0.0766
     26 C18        10.5452    7.9799    1.1110 C.3       1 <0>         0.0868
     27 H4         11.3253    8.7407    1.1387 H         1 <0>         0.0879
     28 C19         9.1799    8.6393    1.3228 C.3       1 <0>         0.1091
     29 H5          9.0214    9.4005    0.5590 H         1 <0>         0.0866
     30 O6          8.1541    7.6488    1.2284 O.3       1 <0>        -0.3672
     31 C20         9.1363    9.2889    2.7074 C.3       1 <0>         0.0892
     32 O7          7.9078   10.0027    2.8601 O.3       1 <0>        -0.5675
     33 O8         10.7782    7.0192    2.1429 O.3       1 <0>        -0.5455
     34 O9         11.8044    6.6011   -0.4289 O.3       1 <0>        -0.5535
     35 O10         9.3700    5.6617   -1.5998 O.3       1 <0>        -0.5574
     36 O11         1.9140    8.0608    0.0365 O.3       1 <0>        -0.4950
     37 H6         -0.9608    1.9052    0.0260 H         1 <0>         0.1419
     38 H7          1.1413    3.1729    0.0079 H         1 <0>         0.1457
     39 H8         -0.9275   -0.5539    0.0083 H         1 <0>         0.1422
     40 H9          1.2281   -2.4457    0.8600 H         1 <0>         0.3907
     41 H10         3.9399   -0.8464    0.8427 H         1 <0>         0.3952
     42 H11         5.4613    3.9054    0.8595 H         1 <0>         0.0860
     43 H12         5.4439    3.9144   -0.9203 H         1 <0>         0.0849
     44 H13         2.5381    5.5185    0.0157 H         1 <0>         0.1456
     45 H14         4.1055    9.4936    0.0119 H         1 <0>         0.1349
     46 H15         6.3948    8.5910   -0.0257 H         1 <0>         0.1361
     47 H16         9.2054    8.5166    3.4734 H         1 <0>         0.0699
     48 H17         9.9732    9.9796    2.8111 H         1 <0>         0.0669
     49 H18         7.8115   10.4411    3.7167 H         1 <0>         0.3854
     50 H19        11.6254    6.5591    2.0679 H         1 <0>         0.3902
     51 H20        11.8794    6.1308   -1.2705 H         1 <0>         0.3967
     52 H21         8.6618    5.0120   -1.7067 H         1 <0>         0.3948
     53 H22         1.5605    8.2009    0.9256 H         1 <0>         0.3896
@<TRIPOS>BOND
     1    1    6 ar
     2    1    2 ar
     3    1   37 1
     4    2    3 ar
     5    2   38 1
     6    3    4 ar
     7    3    9 1
     8    4    5 ar
     9    4    8 1
    10    5    6 ar
    11    5    7 1
    12    6   39 1
    13    7   40 1
    14    8   41 1
    15    9   10 2
    16    9   11 1
    17   11   12 1
    18   12   13 1
    19   12   42 1
    20   12   43 1
    21   13   18 ar
    22   13   14 ar
    23   14   15 ar
    24   14   44 1
    25   15   16 ar
    26   15   36 1
    27   16   17 ar
    28   16   45 1
    29   17   18 ar
    30   17   46 1
    31   18   19 1
    32   19   20 1
    33   20   21 1
    34   20   30 1
    35   20   22 1
    36   22   23 1
    37   22   24 1
    38   22   35 1
    39   24   25 1
    40   24   26 1
    41   24   34 1
    42   26   27 1
    43   26   28 1
    44   26   33 1
    45   28   29 1
    46   28   30 1
    47   28   31 1
    48   31   32 1
    49   31   47 1
    50   31   48 1
    51   32   49 1
    52   33   50 1
    53   34   51 1
    54   35   52 1
    55   36   53 1
@<TRIPOS>MOLECULE
ZINC44689746
   78    81     0     0     0
SMALL
USER_CHARGES

@<TRIPOS>ATOM
      1 C1          0.0625    2.8874    0.9983 C.3       1 <0>        -0.2024
      2 C2          0.5892    1.4572    1.1326 C.3       1 <0>        -0.0298
      3 C3          1.3690    1.0880   -0.1085 C.3       1 <0>        -0.1111
      4 C4          2.3644    2.2280   -0.3770 C.3       1 <0>        -0.1072
      5 C5          3.3053    2.4620    0.8040 C.3       1 <0>        -0.0912
      6 H1          3.9938    1.6177    0.8397 H         1 <0>         0.1643
      7 C6          2.5672    2.4937    2.1151 C.2       1 <0>        -0.0205
      8 C7          2.7719    3.4054    3.0588 C.2       1 <0>        -0.2506
      9 C8          3.7738    4.4583    2.8572 C.2       1 <0>         0.4007
     10 O1          3.7495    5.4909    3.4937 O.2       1 <0>        -0.4551
     11 C9          4.8400    4.1914    1.8156 C.3       1 <0>        -0.1220
     12 H2          5.3867    5.1104    1.6042 H         1 <0>         0.0968
     13 C10         4.1349    3.7088    0.5529 C.3       1 <0>        -0.0358
     14 C11         5.1874    3.4257   -0.5227 C.3       1 <0>        -0.1056
     15 C12         6.1466    2.3443   -0.0207 C.3       1 <0>         0.0744
     16 H3          6.8965    2.1409   -0.7852 H         1 <0>         0.0627
     17 C13         6.8381    2.8256    1.2562 C.3       1 <0>         0.0758
     18 H4          7.4004    3.7350    1.0440 H         1 <0>         0.0641
     19 C14         5.8037    3.1256    2.3400 C.3       1 <0>        -0.0948
     20 O2          7.7304    1.8127    1.7251 O.3       1 <0>        -0.5627
     21 O3          5.4136    1.1495    0.2568 O.3       1 <0>        -0.5353
     22 C15         3.2151    4.8177    0.0378 C.3       1 <0>        -0.1585
     23 C16         1.5723    1.3785    2.3345 C.3       1 <0>         0.1530
     24 C17         0.6106    1.5254    3.5162 C.3       1 <0>        -0.1308
     25 C18        -0.5861    0.6244    3.0991 C.3       1 <0>        -0.1369
     26 C19        -0.5457    0.5356    1.5510 C.3       1 <0>        -0.0887
     27 H5         -0.3390   -0.4870    1.2356 H         1 <0>         0.0781
     28 C20        -1.8698    1.0192    0.9562 C.3       1 <0>         0.1182
     29 C21        -1.7639    1.0455   -0.5699 C.3       1 <0>        -0.1515
     30 C22        -2.1760    2.4272    1.4705 C.3       1 <0>         0.0223
     31 H6         -1.5703    3.1523    0.9269 H         1 <0>         0.1552
     32 C23        -3.6587    2.7376    1.2553 C.3       1 <0>        -0.1459
     33 C24        -3.9392    4.1879    1.6539 C.3       1 <0>        -0.1418
     34 C25        -5.4218    4.4983    1.4386 C.3       1 <0>         0.1260
     35 C26        -5.6784    5.9806    1.7179 C.3       1 <0>        -0.1803
     36 C27        -5.8052    4.1780   -0.0076 C.3       1 <0>        -0.1438
     37 O4         -6.2090    3.7029    2.3273 O.3       1 <0>        -0.5589
     38 O5         -1.8713    2.5018    2.8647 O.3       1 <0>        -0.5386
     39 O6         -2.9195    0.1311    1.3456 O.3       1 <0>        -0.5534
     40 O7          2.2409    0.1159    2.3658 O.3       1 <0>        -0.5352
     41 H7          0.9018    3.5823    0.9674 H         1 <0>         0.0588
     42 H8         -0.5168    2.9764    0.0793 H         1 <0>         0.0702
     43 H9         -0.5726    3.1224    1.8523 H         1 <0>         0.1184
     44 H10         1.9086    0.1553    0.0561 H         1 <0>         0.0792
     45 H11         0.6905    0.9808   -0.9548 H         1 <0>         0.0664
     46 H12         2.9569    1.9802   -1.2578 H         1 <0>         0.0649
     47 H13         1.8081    3.1445   -0.5733 H         1 <0>         0.0648
     48 H14         2.2005    3.3721    3.9746 H         1 <0>         0.1340
     49 H15         4.6948    3.0812   -1.4320 H         1 <0>         0.0830
     50 H16         5.7459    4.3376   -0.7342 H         1 <0>         0.0821
     51 H17         6.2962    3.4921    3.2407 H         1 <0>         0.0756
     52 H18         5.2491    2.2166    2.5726 H         1 <0>         0.0842
     53 H19         8.4255    1.5784    1.0951 H         1 <0>         0.3800
     54 H20         5.9592    0.4194    0.5800 H         1 <0>         0.3750
     55 H21         2.3738    4.9382    0.7202 H         1 <0>         0.0580
     56 H22         3.7716    5.7530   -0.0216 H         1 <0>         0.0571
     57 H23         2.8447    4.5518   -0.9523 H         1 <0>         0.0688
     58 H24         1.0686    1.1585    4.4348 H         1 <0>         0.0602
     59 H25         0.2928    2.5619    3.6291 H         1 <0>         0.0900
     60 H26        -0.4762   -0.3690    3.5340 H         1 <0>         0.0459
     61 H27        -1.5243    1.0742    3.4240 H         1 <0>         0.1121
     62 H28        -1.5679    0.0384   -0.9379 H         1 <0>         0.0657
     63 H29        -2.6997    1.4111   -0.9928 H         1 <0>         0.0620
     64 H30        -0.9488    1.7057   -0.8662 H         1 <0>         0.0809
     65 H31        -3.9111    2.5943    0.2046 H         1 <0>         0.0769
     66 H32        -4.2627    2.0689    1.8685 H         1 <0>         0.0737
     67 H33        -3.6868    4.3313    2.7045 H         1 <0>         0.0687
     68 H34        -3.3352    4.8566    1.0406 H         1 <0>         0.0688
     69 H35        -5.0780    6.5872    1.0400 H         1 <0>         0.0651
     70 H36        -6.7346    6.2017    1.5645 H         1 <0>         0.0634
     71 H37        -5.4052    6.2087    2.7481 H         1 <0>         0.0576
     72 H38        -5.6224    3.1220   -0.2066 H         1 <0>         0.0671
     73 H39        -6.8614    4.3992   -0.1610 H         1 <0>         0.0608
     74 H40        -5.2048    4.7847   -0.6855 H         1 <0>         0.0682
     75 H41        -6.0188    3.8540    3.2633 H         1 <0>         0.3736
     76 H42        -2.5491    2.1164    3.4366 H         1 <0>         0.3702
     77 H43        -3.0438    0.0646    2.3023 H         1 <0>         0.3701
     78 H44         2.8648    0.0193    3.0983 H         1 <0>         0.3749
@<TRIPOS>BOND
     1    1    2 1
     2    1   41 1
     3    1   42 1
     4    1   43 1
     5    2   23 1
     6    2   26 1
     7    2    3 1
     8    3    4 1
     9    3   44 1
    10    3   45 1
    11    4    5 1
    12    4   46 1
    13    4   47 1
    14    5    6 1
    15    5   13 1
    16    5    7 1
    17    7    8 2
    18    7   23 1
    19    8    9 1
    20    8   48 1
    21    9   10 2
    22    9   11 1
    23   11   12 1
    24   11   19 1
    25   11   13 1
    26   13   14 1
    27   13   22 1
    28   14   15 1
    29   14   49 1
    30   14   50 1
    31   15   16 1
    32   15   17 1
    33   15   21 1
    34   17   18 1
    35   17   19 1
    36   17   20 1
    37   19   51 1
    38   19   52 1
    39   20   53 1
    40   21   54 1
    41   22   55 1
    42   22   56 1
    43   22   57 1
    44   23   24 1
    45   23   40 1
    46   24   25 1
    47   24   58 1
    48   24   59 1
    49   25   26 1
    50   25   60 1
    51   25   61 1
    52   26   27 1
    53   26   28 1
    54   28   29 1
    55   28   30 1
    56   28   39 1
    57   29   62 1
    58   29   63 1
    59   29   64 1
    60   30   31 1
    61   30   32 1
    62   30   38 1
    63   32   33 1
    64   32   65 1
    65   32   66 1
    66   33   34 1
    67   33   67 1
    68   33   68 1
    69   34   35 1
    70   34   36 1
    71   34   37 1
    72   35   69 1
    73   35   70 1
    74   35   71 1
    75   36   72 1
    76   36   73 1
    77   36   74 1
    78   37   75 1
    79   38   76 1
    80   39   77 1
    81   40   78 1
@<TRIPOS>MOLECULE
ZINC59382699
   55    55     0     0     0
SMALL
USER_CHARGES

@<TRIPOS>ATOM
      1 C1          1.9049    1.5484   -0.5486 C.3       1 <0>        -0.1902
      2 C2          1.9426    0.0188   -0.5562 C.3       1 <0>         0.0815
      3 H1          1.0592   -0.3639   -1.0671 H         1 <0>         0.1269
      4 C3          1.9630   -0.4980    0.8837 C.3       1 <0>        -0.0465
      5 N1          1.9993   -1.9665    0.8764 N.4       1 <0>        -0.4938
      6 C4          2.0189   -2.4627    2.2590 C.3       1 <0>        -0.0263
      7 C5          2.0561   -3.9692    2.2515 C.2       1 <0>         0.5035
      8 O1          2.0654   -4.5704    1.1981 O.2       1 <0>        -0.4944
      9 N2          2.0790   -4.6486    3.4153 N.am      1 <0>        -0.6454
     10 C6          1.9959   -6.0459    3.4118 C.ar      1 <0>         0.1675
     11 C7          1.3926   -6.7039    2.3477 C.ar      1 <0>        -0.0710
     12 C8          1.3101   -8.0832    2.3435 C.ar      1 <0>        -0.1302
     13 C9          1.8266   -8.8127    3.3971 C.ar      1 <0>        -0.0645
     14 C10         2.4308   -8.1613    4.4648 C.ar      1 <0>         0.1656
     15 C11         2.5214   -6.7760    4.4693 C.ar      1 <0>        -0.0569
     16 Cl1         3.2827   -5.9581    5.7979 Cl        1 <0>        -0.0250
     17 N3          2.9531   -8.9011    5.5322 N.am      1 <0>        -0.6479
     18 C12         3.5184  -10.1035    5.3060 C.2       1 <0>         0.5045
     19 O2          3.4980  -10.5833    4.1923 O.2       1 <0>        -0.4965
     20 C13         4.1759  -10.8518    6.4369 C.3       1 <0>        -0.0261
     21 N4          4.7114  -12.1246    5.9359 N.4       1 <0>        -0.4942
     22 C14         5.3523  -12.8540    7.0382 C.3       1 <0>        -0.0462
     23 C15         5.9102  -14.1796    6.5164 C.3       1 <0>         0.0817
     24 H2          5.1141  -14.7418    6.0281 H         1 <0>         0.1260
     25 C16         6.4666  -14.9944    7.6858 C.3       1 <0>        -0.1902
     26 O3          6.9552  -13.9199    5.5770 O.3       1 <0>        -0.5547
     27 C17         0.6547   -8.7935    1.1872 C.3       1 <0>         0.5125
     28 F1          1.6154   -9.0810    0.2116 F         1 <0>        -0.1644
     29 F2          0.0774   -9.9851    1.6387 F         1 <0>        -0.1677
     30 F3         -0.3369   -7.9737    0.6379 F         1 <0>        -0.1682
     31 O4          3.1172   -0.4252   -1.2383 O.3       1 <0>        -0.5552
     32 H3          2.7884    1.9311   -0.0376 H         1 <0>         0.0730
     33 H4          1.8903    1.9165   -1.5744 H         1 <0>         0.0911
     34 H5          1.0090    1.8871   -0.0283 H         1 <0>         0.0815
     35 H6          2.8465   -0.1152    1.3947 H         1 <0>         0.1399
     36 H7          1.0671   -0.1593    1.4041 H         1 <0>         0.1479
     37 H8          1.1815   -2.3208    0.4035 H         1 <0>         0.4383
     38 H9          2.9024   -2.0800    2.7699 H         1 <0>         0.1694
     39 H10         1.1230   -2.1240    2.7793 H         1 <0>         0.1720
     40 H11         2.1531   -4.1692    4.2553 H         1 <0>         0.4275
     41 H12         0.9872   -6.1368    1.5228 H         1 <0>         0.1737
     42 H13         1.7600   -9.8906    3.3907 H         1 <0>         0.1695
     43 H14         2.9080   -8.5485    6.4347 H         1 <0>         0.4278
     44 H15         4.9886  -10.2514    6.8458 H         1 <0>         0.1696
     45 H16         3.4413  -11.0489    7.2177 H         1 <0>         0.1710
     46 H17         3.9591  -12.6803    5.5574 H         1 <0>         0.4381
     47 H18         6.1650  -12.2536    7.4472 H         1 <0>         0.1399
     48 H19         4.6178  -13.0511    7.8191 H         1 <0>         0.1477
     49 H20         5.6695  -15.1926    8.4024 H         1 <0>         0.0812
     50 H21         6.8640  -15.9389    7.3140 H         1 <0>         0.0910
     51 H22         7.2626  -14.4323    8.1741 H         1 <0>         0.0732
     52 H23         7.6987  -13.4220    5.9435 H         1 <0>         0.3906
     53 H24         3.9432   -0.1214   -0.8378 H         1 <0>         0.3902
     54 H25         2.8286   -2.2801    0.3948 H         1 <0>         0.4406
     55 H26         5.3914  -11.9421    5.2131 H         1 <0>         0.4408
@<TRIPOS>BOND
     1    1    2 1
     2    1   32 1
     3    1   33 1
     4    1   34 1
     5    2    3 1
     6    2    4 1
     7    2   31 1
     8    4    5 1
     9    4   35 1
    10    4   36 1
    11    5    6 1
    12    5   37 1
    13    5   54 1
    14    6    7 1
    15    6   38 1
    16    6   39 1
    17    7    8 2
    18    7    9 am
    19    9   10 1
    20    9   40 1
    21   10   15 ar
    22   10   11 ar
    23   11   12 ar
    24   11   41 1
    25   12   13 ar
    26   12   27 1
    27   13   14 ar
    28   13   42 1
    29   14   15 ar
    30   14   17 1
    31   15   16 1
    32   17   18 am
    33   17   43 1
    34   18   19 2
    35   18   20 1
    36   20   21 1
    37   20   44 1
    38   20   45 1
    39   21   22 1
    40   21   46 1
    41   21   55 1
    42   22   23 1
    43   22   47 1
    44   22   48 1
    45   23   24 1
    46   23   25 1
    47   23   26 1
    48   25   49 1
    49   25   50 1
    50   25   51 1
    51   26   52 1
    52   27   28 1
    53   27   29 1
    54   27   30 1
    55   31   53 1
@<TRIPOS>MOLECULE
ZINC12033081
   51    53     0     0     0
SMALL
USER_CHARGES
methyl 4-[[2-[[4-amino-5-[(4-fluorobenzoyl)amino]-6-oxo-1H-pyrimidin-2-yl]sulfanyl]acetyl]amino]benzoate
@<TRIPOS>ATOM
      1 C1          4.2645  -12.7795    0.2031 C.3       1 <0>         0.0365
      2 O1          4.0562  -11.3497    0.3466 O.3       1 <0>        -0.3550
      3 C2          5.0283  -10.5402   -0.1176 C.2       1 <0>         0.5092
      4 O2          6.0228  -11.0161   -0.6284 O.2       1 <0>        -0.5056
      5 C3          4.8852   -9.0768   -0.0058 C.ar      1 <0>        -0.1411
      6 C4          5.8928   -8.2354   -0.4870 C.ar      1 <0>        -0.0329
      7 C5          5.7556   -6.8699   -0.3813 C.ar      1 <0>        -0.1530
      8 C6          4.6158   -6.3267    0.2035 C.ar      1 <0>         0.1779
      9 C7          3.6133   -7.1611    0.6882 C.ar      1 <0>        -0.1340
     10 C8          3.7414   -8.5275    0.5812 C.ar      1 <0>        -0.0397
     11 N1          4.4805   -4.9432    0.3092 N.am      1 <0>        -0.6644
     12 C9          3.2671   -4.3724    0.1734 C.2       1 <0>         0.5332
     13 O3          2.2811   -5.0670    0.0462 O.2       1 <0>        -0.4969
     14 C10         3.1356   -2.8712    0.1796 C.3       1 <0>        -0.1491
     15 S1          1.3949   -2.4172   -0.0205 S.3       1 <0>         0.1026
     16 C11         1.5301   -0.6609    0.0211 C.2       1 <0>         0.3869
     17 N2          0.4048    0.0970   -0.1015 N.am      1 <0>        -0.6175
     18 H1         -0.4581   -0.3324   -0.2102 H         1 <0>         0.4232
     19 C12         0.4875    1.4436   -0.0717 C.2       1 <0>         0.5481
     20 O4         -0.5158    2.1306   -0.1859 O.2       1 <0>        -0.5196
     21 C13         1.7469    2.0403    0.0870 C.2       1 <0>        -0.1367
     22 C14         2.8636    1.2194    0.2076 C.2       1 <0>         0.4593
     23 N3          2.7163   -0.1097    0.1704 N.2       1 <0>        -0.5702
     24 N4          4.1203    1.7749    0.3659 N.pl3     1 <0>        -0.8242
     25 N5          1.8784    3.4419    0.1230 N.am      1 <0>        -0.6426
     26 C15         1.2062    4.1584    1.0457 C.2       1 <0>         0.5642
     27 O5          0.5541    3.5897    1.9004 O.2       1 <0>        -0.5083
     28 C16         1.2613    5.6341    1.0187 C.ar      1 <0>        -0.1421
     29 C17         2.0139    6.2896    0.0418 C.ar      1 <0>        -0.0588
     30 C18         2.0573    7.6671    0.0179 C.ar      1 <0>        -0.1602
     31 C19         1.3651    8.4017    0.9686 C.ar      1 <0>         0.1259
     32 C20         0.6210    7.7559    1.9442 C.ar      1 <0>        -0.1592
     33 C21         0.5657    6.3790    1.9736 C.ar      1 <0>        -0.0281
     34 F1          1.4156    9.7515    0.9440 F         1 <0>        -0.1325
     35 H2          3.4095  -13.3145    0.6164 H         1 <0>         0.1047
     36 H3          4.3721  -13.0268   -0.8530 H         1 <0>         0.0650
     37 H4          5.1684  -13.0705    0.7383 H         1 <0>         0.0649
     38 H5          6.7775   -8.6564   -0.9413 H         1 <0>         0.1442
     39 H6          6.5334   -6.2193   -0.7531 H         1 <0>         0.1391
     40 H7          2.7321   -6.7362    1.1456 H         1 <0>         0.1493
     41 H8          2.9611   -9.1745    0.9539 H         1 <0>         0.1444
     42 H9          5.2596   -4.3913    0.4805 H         1 <0>         0.4191
     43 H10         3.7171   -2.4521   -0.6416 H         1 <0>         0.1396
     44 H11         3.5072   -2.4778    1.1258 H         1 <0>         0.1396
     45 H12         4.8974    1.2005    0.4501 H         1 <0>         0.4100
     46 H13         4.2246    2.7389    0.3926 H         1 <0>         0.4137
     47 H14         2.4527    3.8918   -0.5163 H         1 <0>         0.3994
     48 H15         2.5570    5.7183   -0.6964 H         1 <0>         0.1350
     49 H16         2.6351    8.1751   -0.7401 H         1 <0>         0.1439
     50 H17         0.0835    8.3329    2.6821 H         1 <0>         0.1452
     51 H18        -0.0148    5.8770    2.7335 H         1 <0>         0.1478
@<TRIPOS>BOND
     1    1    2 1
     2    1   35 1
     3    1   36 1
     4    1   37 1
     5    2    3 1
     6    3    4 2
     7    3    5 1
     8    5   10 ar
     9    5    6 ar
    10    6    7 ar
    11    6   38 1
    12    7    8 ar
    13    7   39 1
    14    8    9 ar
    15    8   11 1
    16    9   10 ar
    17    9   40 1
    18   10   41 1
    19   11   12 am
    20   11   42 1
    21   12   13 2
    22   12   14 1
    23   14   15 1
    24   14   43 1
    25   14   44 1
    26   15   16 1
    27   16   23 2
    28   16   17 1
    29   17   18 1
    30   17   19 am
    31   19   20 2
    32   19   21 1
    33   21   22 2
    34   21   25 1
    35   22   23 1
    36   22   24 1
    37   24   45 1
    38   24   46 1
    39   25   26 am
    40   25   47 1
    41   26   27 2
    42   26   28 1
    43   28   33 ar
    44   28   29 ar
    45   29   30 ar
    46   29   48 1
    47   30   31 ar
    48   30   49 1
    49   31   32 ar
    50   31   34 1
    51   32   33 ar
    52   32   50 1
    53   33   51 1
@<TRIPOS>MOLECULE
ZINC20806635
   50    53     0     0     0
SMALL
USER_CHARGES
2-[[4-amino-5-[(N'E)-N'-[(2-hydroxy-1-naphthyl)methylene]hydrazino]-1,2,4-triazol-3-yl]sulfanyl]-N-(3-bromophenyl)acetamide
@<TRIPOS>ATOM
      1 C1        -15.2801   -4.0660    0.0420 C.ar      1 <0>        -0.1389
      2 C2        -14.7569   -2.7913   -0.1621 C.ar      1 <0>        -0.0905
      3 C3        -13.4118   -2.5729   -0.1280 C.ar      1 <0>        -0.1333
      4 C4        -12.5429   -3.6434    0.1154 C.ar      1 <0>         0.0235
      5 C5        -13.0712   -4.9420    0.3185 C.ar      1 <0>        -0.0968
      6 C6        -14.4632   -5.1310    0.2714 C.ar      1 <0>        -0.0794
      7 C7        -12.1977   -6.0141    0.5690 C.ar      1 <0>        -0.0354
      8 C8        -10.8523   -5.8199    0.6128 C.ar      1 <0>        -0.1595
      9 C9        -10.2854   -4.5629    0.4139 C.ar      1 <0>         0.2470
     10 C10       -11.0944   -3.4549    0.1611 C.ar      1 <0>        -0.2025
     11 C11       -10.5033   -2.1258   -0.0487 C.2       1 <0>         0.1597
     12 N1         -9.2128   -1.9730    0.0004 N.2       1 <0>        -0.2626
     13 N2         -8.6493   -0.7060   -0.1995 N.pl3     1 <0>        -0.5532
     14 C12        -7.2730   -0.5431   -0.1472 C.2       1 <0>         0.4849
     15 N3         -6.3930   -1.4884    0.0794 N.2       1 <0>        -0.3228
     16 N4         -5.1175   -0.9100    0.0430 N.2       1 <0>        -0.3002
     17 C13        -5.2603    0.3719   -0.1959 C.2       1 <0>         0.1743
     18 N5         -6.5953    0.6315   -0.3232 N.pl3     1 <0>        -0.2599
     19 N6         -7.1552    1.8506   -0.5805 N.3       1 <0>        -0.7773
     20 S1         -3.9582    1.5507   -0.3355 S.3       1 <0>         0.0774
     21 C14        -2.4525    0.5754   -0.0661 C.3       1 <0>        -0.1462
     22 C15        -1.2475    1.4754   -0.1602 C.2       1 <0>         0.5384
     23 O1         -1.3903    2.6584   -0.3867 O.2       1 <0>        -0.5036
     24 N7         -0.0111    0.9658    0.0074 N.am      1 <0>        -0.6782
     25 C16         1.0996    1.8166    0.0263 C.ar      1 <0>         0.1570
     26 C17         2.3183    1.3813   -0.4783 C.ar      1 <0>        -0.1290
     27 C18         3.4117    2.2247   -0.4628 C.ar      1 <0>        -0.0923
     28 C19         3.2974    3.4981    0.0641 C.ar      1 <0>        -0.1063
     29 C20         2.0865    3.9333    0.5725 C.ar      1 <0>        -0.0707
     30 C21         0.9872    3.0955    0.5548 C.ar      1 <0>        -0.0969
     31 Br1         1.9353    5.6753    1.2925 Br        1 <0>        -0.0427
     32 O2         -8.9363   -4.4151    0.4670 O.3       1 <0>        -0.5154
     33 H1        -16.3495   -4.2134    0.0097 H         1 <0>         0.1243
     34 H2        -15.4261   -1.9648   -0.3502 H         1 <0>         0.1242
     35 H3        -13.0187   -1.5797   -0.2874 H         1 <0>         0.1233
     36 H4        -14.8833   -6.1135    0.4282 H         1 <0>         0.1299
     37 H5        -12.5995   -7.0038    0.7288 H         1 <0>         0.1384
     38 H6        -10.2059   -6.6629    0.8073 H         1 <0>         0.1378
     39 H7        -11.1525   -1.2603   -0.2473 H         1 <0>         0.1338
     40 H8         -9.2985    0.1596   -0.3979 H         1 <0>         0.4196
     41 H9         -6.5135    2.7353   -0.7053 H         1 <0>         0.4506
     42 H10        -8.2478    1.9477   -0.6629 H         1 <0>         0.4373
     43 H11        -2.4883    0.1137    0.9317 H         1 <0>         0.1347
     44 H12        -2.3833   -0.2113   -0.8318 H         1 <0>         0.1339
     45 H13         0.1248   -0.1189    0.1293 H         1 <0>         0.4441
     46 H14         2.4096    0.3855   -0.8863 H         1 <0>         0.1348
     47 H15         4.3584    1.8878   -0.8586 H         1 <0>         0.1381
     48 H16         4.1552    4.1541    0.0792 H         1 <0>         0.1353
     49 H17         0.0419    3.4355    0.9514 H         1 <0>         0.1450
     50 H18        -8.4850   -3.4242    0.3105 H         1 <0>         0.4465
@<TRIPOS>BOND
     1    1    6 ar
     2    1    2 ar
     3    1   33 1
     4    2    3 ar
     5    2   34 1
     6    3    4 ar
     7    3   35 1
     8    4   10 ar
     9    4    5 ar
    10    5    6 ar
    11    5    7 ar
    12    6   36 1
    13    7    8 ar
    14    7   37 1
    15    8    9 ar
    16    8   38 1
    17    9   10 ar
    18    9   32 1
    19   10   11 1
    20   11   12 2
    21   11   39 1
    22   12   13 1
    23   13   14 1
    24   13   40 1
    25   14   18 1
    26   14   15 2
    27   15   16 1
    28   16   17 2
    29   17   18 1
    30   17   20 1
    31   18   19 1
    32   19   41 1
    33   19   42 1
    34   20   21 1
    35   21   22 1
    36   21   43 1
    37   21   44 1
    38   22   23 2
    39   22   24 am
    40   24   25 1
    41   24   45 1
    42   25   30 ar
    43   25   26 ar
    44   26   27 ar
    45   26   46 1
    46   27   28 ar
    47   27   47 1
    48   28   29 ar
    49   28   48 1
    50   29   30 ar
    51   29   31 1
    52   30   49 1
    53   32   50 1
@<TRIPOS>MOLECULE
ZINC31169001
   77    80     0     0     0
SMALL
USER_CHARGES
4-[2-[(1R,2R,4aR,6S,8aR)-1-hydroxy-2,5,5,8a-tetramethyl-6-[(2R,3R,4S,5S,6R)-3,4,5-trihydroxy-6-(hydroxymethyl)tetrahydropyran-2-yl]oxy-decalin-1-yl]ethyl]-2H-furan-5-one
@<TRIPOS>ATOM
      1 C1         -4.3084    1.1732    6.9435 C.3       1 <0>        -0.1386
      2 C2         -3.0426    1.8679    6.4422 C.3       1 <0>        -0.0802
      3 H1         -2.3807    2.0750    7.2960 H         1 <0>         0.0678
      4 C3         -3.3707    3.2257    5.8477 C.3       1 <0>        -0.1122
      5 C4         -3.8992    3.1022    4.4164 C.3       1 <0>        -0.1147
      6 C5         -2.8209    2.4109    3.5802 C.3       1 <0>        -0.0531
      7 H2         -1.8473    2.9040    3.7181 H         1 <0>         0.0666
      8 C6         -3.0716    2.5671    2.0939 C.3       1 <0>        -0.0448
      9 C7         -2.1328    1.7182    1.2405 C.3       1 <0>         0.1092
     10 H3         -2.5070    1.6911    0.2065 H         1 <0>         0.0526
     11 C8         -2.0047    0.2901    1.7538 C.3       1 <0>        -0.1403
     12 C9         -1.5527    0.3055    3.2163 C.3       1 <0>        -0.1071
     13 C10        -2.6350    0.9844    4.0684 C.3       1 <0>        -0.0628
     14 C11        -2.2203    0.9634    5.5400 C.3       1 <0>         0.1718
     15 C12        -0.7409    1.3448    5.6909 C.3       1 <0>        -0.1415
     16 C13        -0.3240    1.2010    7.1559 C.3       1 <0>        -0.0590
     17 C14         1.1586    1.4401    7.2821 C.2       1 <0>        -0.2032
     18 C15         1.7248    2.6026    7.5956 C.2       1 <0>        -0.1340
     19 C16         3.2185    2.3758    7.6069 C.3       1 <0>         0.0625
     20 O1          3.4143    0.9741    7.2685 O.3       1 <0>        -0.3233
     21 C17         2.1983    0.4265    7.0846 C.2       1 <0>         0.4952
     22 O2          1.9933   -0.7356    6.7938 O.2       1 <0>        -0.4513
     23 O3         -2.3659   -0.3910    6.0146 O.3       1 <0>        -0.5827
     24 C18        -3.9198    0.1557    3.9296 C.3       1 <0>        -0.1524
     25 O4         -0.8390    2.3324    1.2087 O.3       1 <0>        -0.3418
     26 C19        -0.1274    2.1257   -0.0132 C.3       1 <0>         0.2705
     27 H4         -0.7947    2.4153   -0.8383 H         1 <0>         0.0597
     28 C20         1.1792    2.9229    0.0158 C.3       1 <0>         0.1195
     29 H5          1.7751    2.6860    0.9096 H         1 <0>         0.0772
     30 C21         1.9640    2.6490   -1.2709 C.3       1 <0>         0.0996
     31 H6          1.4449    3.0511   -2.1534 H         1 <0>         0.0713
     32 C22         2.2054    1.1417   -1.3976 C.3       1 <0>         0.0645
     33 H7          2.8772    0.7739   -0.6080 H         1 <0>         0.0753
     34 C23         0.8591    0.4133   -1.3720 C.3       1 <0>         0.0704
     35 H8          0.2064    0.7502   -2.1908 H         1 <0>         0.0756
     36 O5          0.1675    0.7356   -0.1637 O.3       1 <0>        -0.3822
     37 C24         1.0948   -1.0970   -1.4377 C.3       1 <0>         0.0952
     38 O6         -0.1616   -1.7716   -1.5299 O.3       1 <0>        -0.5903
     39 O7          2.8742    0.8659   -2.6299 O.3       1 <0>        -0.5916
     40 O8          3.2185    3.3316   -1.2221 O.3       1 <0>        -0.5925
     41 O9          0.8853    4.3183    0.1080 O.3       1 <0>        -0.5777
     42 C25        -2.7838    4.0437    1.7196 C.3       1 <0>        -0.1438
     43 C26        -4.5239    2.2874    1.7068 C.3       1 <0>        -0.1526
     44 H9         -4.8722    1.8610    7.5909 H         1 <0>         0.0458
     45 H10        -4.0318    0.2752    7.5154 H         1 <0>         0.0644
     46 H11        -4.9321    0.8835    6.0850 H         1 <0>         0.0608
     47 H12        -4.1403    3.7179    6.4604 H         1 <0>         0.0666
     48 H13        -2.4633    3.8472    5.8300 H         1 <0>         0.0586
     49 H14        -4.8235    2.5059    4.4170 H         1 <0>         0.0695
     50 H15        -4.1099    4.1047    4.0155 H         1 <0>         0.0655
     51 H16        -2.9789   -0.2153    1.6787 H         1 <0>         0.0706
     52 H17        -1.2629   -0.2519    1.1488 H         1 <0>         0.0857
     53 H18        -1.4009   -0.7270    3.5640 H         1 <0>         0.0567
     54 H19        -0.6089    0.8639    3.3026 H         1 <0>         0.0696
     55 H20        -0.1253    0.6796    5.0675 H         1 <0>         0.0730
     56 H21        -0.5961    2.3867    5.3691 H         1 <0>         0.0683
     57 H22        -0.8674    1.9377    7.7658 H         1 <0>         0.0814
     58 H23        -0.5630    0.1864    7.5073 H         1 <0>         0.0922
     59 H24         1.0978    3.4861    7.7861 H         1 <0>         0.1784
     60 H25         3.6949    3.0338    6.8652 H         1 <0>         0.1221
     61 H26         3.6162    2.6023    8.6072 H         1 <0>         0.1225
     62 H27        -1.8481   -1.2131    5.4989 H         1 <0>         0.3964
     63 H28        -3.7382   -0.8662    4.2940 H         1 <0>         0.0616
     64 H29        -4.2205    0.1198    2.8721 H         1 <0>         0.0603
     65 H30        -4.7213    0.6197    4.5232 H         1 <0>         0.0623
     66 H31         1.7044   -1.3348   -2.3219 H         1 <0>         0.0587
     67 H32         1.6217   -1.4257   -0.5298 H         1 <0>         0.0555
     68 H33        -0.1934   -2.8697   -1.5870 H         1 <0>         0.4141
     69 H34         3.1324   -0.1698   -2.8957 H         1 <0>         0.4138
     70 H35         3.9214    3.2513   -2.0644 H         1 <0>         0.4233
     71 H36         1.7043    5.0519    0.1408 H         1 <0>         0.4196
     72 H37        -2.9574    4.1896    0.6432 H         1 <0>         0.0482
     73 H38        -1.7375    4.2852    1.9584 H         1 <0>         0.0692
     74 H39        -3.4523    4.7039    2.2916 H         1 <0>         0.0520
     75 H40        -4.6452    2.4158    0.6211 H         1 <0>         0.0523
     76 H41        -5.1859    2.9892    2.2353 H         1 <0>         0.0641
     77 H42        -4.7855    1.2560    1.9856 H         1 <0>         0.0666
@<TRIPOS>BOND
     1    1    2 1
     2    1   44 1
     3    1   45 1
     4    1   46 1
     5    2    3 1
     6    2   14 1
     7    2    4 1
     8    4    5 1
     9    4   47 1
    10    4   48 1
    11    5    6 1
    12    5   49 1
    13    5   50 1
    14    6    7 1
    15    6   13 1
    16    6    8 1
    17    8    9 1
    18    8   42 1
    19    8   43 1
    20    9   10 1
    21    9   11 1
    22    9   25 1
    23   11   12 1
    24   11   51 1
    25   11   52 1
    26   12   13 1
    27   12   53 1
    28   12   54 1
    29   13   14 1
    30   13   24 1
    31   14   15 1
    32   14   23 1
    33   15   16 1
    34   15   55 1
    35   15   56 1
    36   16   17 1
    37   16   57 1
    38   16   58 1
    39   17   21 1
    40   17   18 2
    41   18   19 1
    42   18   59 1
    43   19   20 1
    44   19   60 1
    45   19   61 1
    46   20   21 1
    47   21   22 2
    48   23   62 1
    49   24   63 1
    50   24   64 1
    51   24   65 1
    52   25   26 1
    53   26   27 1
    54   26   36 1
    55   26   28 1
    56   28   29 1
    57   28   30 1
    58   28   41 1
    59   30   31 1
    60   30   32 1
    61   30   40 1
    62   32   33 1
    63   32   34 1
    64   32   39 1
    65   34   35 1
    66   34   36 1
    67   34   37 1
    68   37   38 1
    69   37   66 1
    70   37   67 1
    71   38   68 1
    72   39   69 1
    73   40   70 1
    74   41   71 1
    75   42   72 1
    76   42   73 1
    77   42   74 1
    78   43   75 1
    79   43   76 1
    80   43   77 1
@<TRIPOS>MOLECULE
ZINC39015606
   59    62     0     0     0
SMALL
USER_CHARGES

@<TRIPOS>ATOM
      1 C1         -0.0157    1.5028    0.0138 C.3       1 <0>        -0.1176
      2 C2          0.0041   -0.0041    0.0035 C.ar      1 <0>        -0.0596
      3 C3         -1.1355   -0.7114    0.3404 C.ar      1 <0>        -0.1131
      4 C4         -1.1210   -2.0924    0.3325 C.ar      1 <0>        -0.0566
      5 C5          0.0393   -2.7714   -0.0147 C.ar      1 <0>         0.1324
      6 C6          1.1829   -2.0583   -0.3533 C.ar      1 <0>        -0.0175
      7 C7          1.1600   -0.6762   -0.3484 C.ar      1 <0>        -0.1144
      8 Cl1         2.6363   -2.9020   -0.7884 Cl        1 <0>        -0.0566
      9 N1          0.0572   -4.1710   -0.0232 N.am      1 <0>        -0.6776
     10 C8          0.4707   -4.8463    1.0674 C.2       1 <0>         0.5408
     11 O1          0.7407   -4.2460    2.0861 O.2       1 <0>        -0.4979
     12 C9          0.5976   -6.3472    1.0211 C.3       1 <0>        -0.1362
     13 S1          1.1714   -6.9555    2.6309 S.3       1 <0>        -0.0987
     14 C10         1.2706   -8.7534    2.4108 C.3       1 <0>         0.2195
     15 H1          1.6219   -9.2338    3.3239 H         1 <0>         0.1398
     16 N2          2.1514   -9.0954    1.2635 N.3       1 <0>        -0.4539
     17 N3          1.6979  -10.4214    0.8353 N.3       1 <0>        -0.4808
     18 C11         0.3003  -10.5640    1.2912 C.3       1 <0>         0.2302
     19 H2          0.2147  -11.4088    1.9746 H         1 <0>         0.1176
     20 N4         -0.0463   -9.3068    1.9976 N.3       1 <0>        -0.3779
     21 N5         -0.8873   -9.5692    3.1544 N.3       1 <0>        -0.6858
     22 C12        -0.6250  -10.7663    0.0896 C.3       1 <0>        -0.0517
     23 H3         -1.6691  -10.7465    0.4019 H         1 <0>         0.1577
     24 C13        -0.3029  -12.0684   -0.6219 C.2       1 <0>        -0.1407
     25 C14         0.0652  -11.6784   -1.8577 C.2       1 <0>         0.0139
     26 N6          0.0023  -10.3253   -1.9663 N.2       1 <0>        -0.1515
     27 N7         -0.3708   -9.7451   -0.9400 N.2       1 <0>        -0.1555
     28 C15         0.4805  -12.5965   -2.9463 C.ar      1 <0>        -0.0756
     29 C16         0.5038  -13.9731   -2.7282 C.ar      1 <0>        -0.0571
     30 C17         0.8899  -14.8241   -3.7423 C.ar      1 <0>        -0.1516
     31 C18         1.2556  -14.3110   -4.9795 C.ar      1 <0>         0.1433
     32 C19         1.2334  -12.9405   -5.1998 C.ar      1 <0>        -0.2099
     33 C20         0.8427  -12.0848   -4.1913 C.ar      1 <0>        -0.0436
     34 O2          1.6364  -15.1519   -5.9765 O.3       1 <0>        -0.3142
     35 C21         1.9998  -14.5568   -7.2238 C.3       1 <0>         0.0244
     36 C22        -2.3634   -2.8617    0.7010 C.3       1 <0>        -0.1126
     37 H4         -0.3183    1.8689   -0.9673 H         1 <0>         0.0770
     38 H5         -0.7234    1.8517    0.7659 H         1 <0>         0.0724
     39 H6          0.9801    1.8777    0.2503 H         1 <0>         0.0717
     40 H7         -2.0379   -0.1831    0.6105 H         1 <0>         0.1342
     41 H8          2.0469   -0.1209   -0.6157 H         1 <0>         0.1381
     42 H9         -0.2280   -4.6549   -0.8140 H         1 <0>         0.4121
     43 H10        -0.3729   -6.7870    0.7914 H         1 <0>         0.1226
     44 H11         1.3152   -6.6276    0.2500 H         1 <0>         0.1109
     45 H12         2.0531   -8.4218    0.5187 H         1 <0>         0.3234
     46 H13         1.7633  -10.5198   -0.1667 H         1 <0>         0.3424
     47 H14        -1.0551   -8.7236    3.6787 H         1 <0>         0.3689
     48 H15        -1.7560  -10.0023    2.8791 H         1 <0>         0.3581
     49 H16        -0.3564  -13.0730   -0.2288 H         1 <0>         0.1793
     50 H17         0.2201  -14.3728   -1.7658 H         1 <0>         0.1323
     51 H18         0.9081  -15.8907   -3.5738 H         1 <0>         0.1377
     52 H19         1.5187  -12.5443   -6.1631 H         1 <0>         0.1344
     53 H20         0.8214  -11.0190   -4.3647 H         1 <0>         0.1364
     54 H21         1.1522  -13.9975   -7.6201 H         1 <0>         0.0581
     55 H22         2.8419  -13.8815   -7.0725 H         1 <0>         0.0587
     56 H23         2.2823  -15.3373   -7.9302 H         1 <0>         0.1035
     57 H24        -2.9566   -3.0447   -0.1950 H         1 <0>         0.0760
     58 H25        -2.0813   -3.8138    1.1506 H         1 <0>         0.0665
     59 H26        -2.9510   -2.2832    1.4139 H         1 <0>         0.0734
@<TRIPOS>BOND
     1    1    2 1
     2    1   37 1
     3    1   38 1
     4    1   39 1
     5    2    7 ar
     6    2    3 ar
     7    3    4 ar
     8    3   40 1
     9    4    5 ar
    10    4   36 1
    11    5    6 ar
    12    5    9 1
    13    6    7 ar
    14    6    8 1
    15    7   41 1
    16    9   10 am
    17    9   42 1
    18   10   11 2
    19   10   12 1
    20   12   13 1
    21   12   43 1
    22   12   44 1
    23   13   14 1
    24   14   15 1
    25   14   20 1
    26   14   16 1
    27   16   17 1
    28   16   45 1
    29   17   18 1
    30   17   46 1
    31   18   19 1
    32   18   20 1
    33   18   22 1
    34   20   21 1
    35   21   47 1
    36   21   48 1
    37   22   23 1
    38   22   27 1
    39   22   24 1
    40   24   25 2
    41   24   49 1
    42   25   26 1
    43   25   28 1
    44   26   27 2
    45   28   33 ar
    46   28   29 ar
    47   29   30 ar
    48   29   50 1
    49   30   31 ar
    50   30   51 1
    51   31   32 ar
    52   31   34 1
    53   32   33 ar
    54   32   52 1
    55   33   53 1
    56   34   35 1
    57   35   54 1
    58   35   55 1
    59   35   56 1
    60   36   57 1
    61   36   58 1
    62   36   59 1
@<TRIPOS>MOLECULE
ZINC41301934
   58    61     0     0     0
SMALL
USER_CHARGES

@<TRIPOS>ATOM
      1 C1         -0.0187    1.5258    0.0104 C.3       1 <0>        -0.1529
      2 C2          0.0021   -0.0041    0.0020 C.3       1 <0>         0.0594
      3 O1          0.6932   -0.4774    1.1597 O.3       1 <0>        -0.3514
      4 C3          0.8006   -1.8076    1.3039 C.2       1 <0>         0.4648
      5 O2          0.3237   -2.5457    0.4746 O.2       1 <0>        -0.5014
      6 C4          1.5162   -2.3806    2.5000 C.3       1 <0>        -0.0810
      7 C5          2.9650   -1.8877    2.5118 C.3       1 <0>        -0.1278
      8 C6          3.6794   -2.4441    3.7475 C.3       1 <0>         0.1234
      9 N1          3.5394   -3.9066    3.7562 N.pl3     1 <0>        -0.5645
     10 C7          2.1938   -4.4881    3.6571 C.3       1 <0>         0.1200
     11 C8          1.4960   -3.9089    2.4224 C.3       1 <0>        -0.1220
     12 C9          4.6539   -4.7210    3.8554 C.ar      1 <0>         0.6674
     13 N2          5.8527   -4.1652    3.9482 N.ar      1 <0>        -0.6215
     14 C10         6.9467   -4.9167    4.0455 C.ar      1 <0>         0.5606
     15 C11         6.8182   -6.3031    4.0489 C.ar      1 <0>        -0.3088
     16 C12         5.5428   -6.8501    3.9497 C.ar      1 <0>         0.5401
     17 N3          4.4935   -6.0354    3.8604 N.ar      1 <0>        -0.6247
     18 N4          5.3663   -8.2267    3.9485 N.pl3     1 <0>        -0.5893
     19 C13         4.0935   -8.7611    3.8494 C.2       1 <0>         0.0390
     20 C14         3.7295  -10.0958    3.8381 C.2       1 <0>        -0.2193
     21 C15         2.3035  -10.3998    3.7227 C.2       1 <0>        -0.0876
     22 C16         1.5161   -9.3132    3.6394 C.2       1 <0>        -0.2528
     23 S1          2.6369   -7.9396    3.7227 S.3       1 <0>         0.3332
     24 C17         0.0622   -9.6819    3.5183 C.3       1 <0>        -0.0304
     25 C18         0.0702  -11.1704    3.1049 C.3       1 <0>        -0.1161
     26 C19         1.4234  -11.6469    3.6706 C.3       1 <0>        -0.0607
     27 C20         4.7311  -11.1606    3.9371 C.2       1 <0>         0.5801
     28 O3          5.0589  -11.5881    5.0287 O.2       1 <0>        -0.5312
     29 N5          5.2893  -11.6666    2.8197 N.am      1 <0>        -0.8468
     30 N6          8.0102   -7.1743    4.1550 N.pl3     1 <0>         0.0366
     31 O4          8.4117   -7.5197    5.2418 O.2       1 <0>        -0.1346
     32 O5          8.5823   -7.5406    3.1549 O.3       1 <0>        -0.1381
     33 N7          8.1975   -4.3272    4.1419 N.pl3     1 <0>        -0.8159
     34 H1          1.0039    1.9031    0.0027 H         1 <0>         0.0671
     35 H2         -0.5459    1.8868   -0.8726 H         1 <0>         0.0806
     36 H3         -0.5289    1.8773    0.9072 H         1 <0>         0.0675
     37 H4         -1.0205   -0.3814    0.0098 H         1 <0>         0.0684
     38 H5          0.5123   -0.3556   -0.8948 H         1 <0>         0.0677
     39 H6          1.0152   -2.0567    3.4123 H         1 <0>         0.1158
     40 H7          3.4738   -2.2323    1.6115 H         1 <0>         0.0760
     41 H8          2.9784   -0.7983    2.5435 H         1 <0>         0.0973
     42 H9          4.7358   -2.1783    3.7094 H         1 <0>         0.1104
     43 H10         3.2282   -2.0285    4.6485 H         1 <0>         0.0817
     44 H11         2.2700   -5.5711    3.5593 H         1 <0>         0.1063
     45 H12         1.6214   -4.2392    4.5507 H         1 <0>         0.0829
     46 H13         0.4639   -4.2580    2.3905 H         1 <0>         0.0941
     47 H14         2.0187   -4.2344    1.5229 H         1 <0>         0.0813
     48 H15         6.1350   -8.8143    4.0172 H         1 <0>         0.4293
     49 H16        -0.4428   -9.5562    4.4760 H         1 <0>         0.0848
     50 H17        -0.4206   -9.0769    2.7508 H         1 <0>         0.0798
     51 H18        -0.7572  -11.7082    3.5678 H         1 <0>         0.0845
     52 H19         0.0426  -11.2741    2.0202 H         1 <0>         0.0771
     53 H20         1.8659  -12.3938    3.0116 H         1 <0>         0.0722
     54 H21         1.2905  -12.0571    4.6717 H         1 <0>         0.0826
     55 H22         5.0281  -11.3259    1.9499 H         1 <0>         0.4034
     56 H23         5.9524  -12.3716    2.8853 H         1 <0>         0.4045
     57 H24         8.2797   -3.3607    4.1386 H         1 <0>         0.4225
     58 H25         8.9906   -4.8811    4.2125 H         1 <0>         0.4163
@<TRIPOS>BOND
     1    1    2 1
     2    1   34 1
     3    1   35 1
     4    1   36 1
     5    2    3 1
     6    2   37 1
     7    2   38 1
     8    3    4 1
     9    4    5 2
    10    4    6 1
    11    6   11 1
    12    6    7 1
    13    6   39 1
    14    7    8 1
    15    7   40 1
    16    7   41 1
    17    8    9 1
    18    8   42 1
    19    8   43 1
    20    9   10 1
    21    9   12 1
    22   10   11 1
    23   10   44 1
    24   10   45 1
    25   11   46 1
    26   11   47 1
    27   12   17 ar
    28   12   13 ar
    29   13   14 ar
    30   14   15 ar
    31   14   33 1
    32   15   16 ar
    33   15   30 1
    34   16   17 ar
    35   16   18 1
    36   18   19 1
    37   18   48 1
    38   19   23 1
    39   19   20 2
    40   20   21 1
    41   20   27 1
    42   21   26 1
    43   21   22 2
    44   22   23 1
    45   22   24 1
    46   24   25 1
    47   24   49 1
    48   24   50 1
    49   25   26 1
    50   25   51 1
    51   25   52 1
    52   26   53 1
    53   26   54 1
    54   27   28 2
    55   27   29 am
    56   29   55 1
    57   29   56 1
    58   30   31 2
    59   30   32 1
    60   33   57 1
    61   33   58 1
@<TRIPOS>MOLECULE
ZINC08872276
   64    66     0     0     0
SMALL
USER_CHARGES
(2R,3R,4R,5R,6E)-6-[[4,6-bis(1-piperidyl)-1,3,5-triazin-2-yl]hydrazono]hexane-1,2,3,4,5-pentol
@<TRIPOS>ATOM
      1 C1         -5.4648    1.7985   14.0594 C.3       1 <0>        -0.1263
      2 C2         -4.1596    2.5483   13.7785 C.3       1 <0>        -0.1211
      3 C3         -3.5761    2.0660   12.4484 C.3       1 <0>         0.0694
      4 N1         -3.3261    0.6207   12.5175 N.pl3     1 <0>        -0.4512
      5 C4         -4.5722   -0.1238   12.7395 C.3       1 <0>         0.0679
      6 C5         -5.1855    0.2931   14.0782 C.3       1 <0>        -0.1181
      7 C6         -2.6797    0.1757   11.3822 C.ar      1 <0>         0.5876
      8 N2         -2.3714    1.0327   10.4139 N.ar      1 <0>        -0.6500
      9 C7         -1.7491    0.6040    9.3200 C.ar      1 <0>         0.6565
     10 N3         -1.4400   -0.6829    9.1922 N.ar      1 <0>        -0.6143
     11 C8         -1.7435   -1.5388   10.1630 C.ar      1 <0>         0.5806
     12 N4         -2.3657   -1.1100   11.2568 N.ar      1 <0>        -0.6050
     13 N5         -1.4176   -2.8736   10.0329 N.pl3     1 <0>        -0.4516
     14 C9         -0.6030   -3.3293   11.1666 C.3       1 <0>         0.0680
     15 C10        -0.3839   -4.8405   11.0641 C.3       1 <0>        -0.1177
     16 C11         0.3214   -5.1606    9.7433 C.3       1 <0>        -0.1263
     17 C12        -0.5243   -4.6327    8.5811 C.3       1 <0>        -0.1206
     18 C13        -0.7393   -3.1276    8.7555 C.3       1 <0>         0.0718
     19 N6         -1.4287    1.4944    8.3138 N.pl3     1 <0>        -0.5407
     20 N7         -0.7729    1.0426    7.1611 N.2       1 <0>        -0.1956
     21 C14        -0.4760    1.8678    6.2286 C.2       1 <0>         0.0277
     22 C15         0.2294    1.3818    4.9887 C.3       1 <0>         0.1452
     23 H1          1.1847    1.8971    4.8886 H         1 <0>         0.1286
     24 C16        -0.6375    1.6720    3.7619 C.3       1 <0>         0.0578
     25 H2         -1.5928    1.1568    3.8620 H         1 <0>         0.1181
     26 C17         0.0786    1.1786    2.5031 C.3       1 <0>         0.0539
     27 H3          0.1720    0.0932    2.5400 H         1 <0>         0.1189
     28 C18        -0.7288    1.5792    1.2668 C.3       1 <0>         0.0836
     29 H4         -0.8222    2.6646    1.2299 H         1 <0>         0.1125
     30 C19        -0.0127    1.0858    0.0080 C.3       1 <0>         0.0446
     31 O1         -0.7038    1.5592   -1.1497 O.3       1 <0>        -0.5656
     32 O2         -2.0295    0.9914    1.3363 O.3       1 <0>        -0.5419
     33 O3          1.3792    1.7665    2.4336 O.3       1 <0>        -0.5434
     34 O4         -0.8637    3.0793    3.6605 O.3       1 <0>        -0.5418
     35 O5          0.4556   -0.0255    5.0901 O.3       1 <0>        -0.5328
     36 H5         -5.8614    2.1075   15.0265 H         1 <0>         0.0704
     37 H6         -6.1903    2.0246   13.2780 H         1 <0>         0.0620
     38 H7         -3.4477    2.3528   14.5804 H         1 <0>         0.0737
     39 H8         -4.3597    3.6183   13.7215 H         1 <0>         0.0760
     40 H9         -2.6394    2.5877   12.2523 H         1 <0>         0.0888
     41 H10        -4.2829    2.2744   11.6451 H         1 <0>         0.0543
     42 H11        -5.2742    0.0948   11.9347 H         1 <0>         0.0461
     43 H12        -4.3590   -1.1926   12.7548 H         1 <0>         0.0986
     44 H13        -4.4897    0.0621   14.8849 H         1 <0>         0.0769
     45 H14        -6.1184   -0.2482   14.2354 H         1 <0>         0.0774
     46 H15         0.3608   -2.8206   11.1489 H         1 <0>         0.0458
     47 H16        -1.1178   -3.0994   12.0994 H         1 <0>         0.0971
     48 H17        -1.3466   -5.3507   11.0956 H         1 <0>         0.0763
     49 H18         0.2338   -5.1759   11.8972 H         1 <0>         0.0765
     50 H19         0.4407   -6.2397    9.6463 H         1 <0>         0.0695
     51 H20         1.3007   -4.6821    9.7280 H         1 <0>         0.0621
     52 H21        -1.4892   -5.1397    8.5735 H         1 <0>         0.0722
     53 H22        -0.0068   -4.8198    7.6402 H         1 <0>         0.0763
     54 H23        -1.3531   -2.7512    7.9372 H         1 <0>         0.0905
     55 H24         0.2253   -2.6200    8.7493 H         1 <0>         0.0564
     56 H25        -1.6577    2.4325    8.4052 H         1 <0>         0.4041
     57 H26        -0.7309    2.9123    6.3305 H         1 <0>         0.1224
     58 H27         0.0021   -0.0041    0.0020 H         1 <0>         0.0488
     59 H28         1.0099    1.4631    0.0003 H         1 <0>         0.0636
     60 H29        -0.3044    1.2838   -1.9862 H         1 <0>         0.3817
     61 H30        -2.0229    0.0250    1.3720 H         1 <0>         0.3733
     62 H31         1.3727    2.7328    2.3980 H         1 <0>         0.3741
     63 H32        -0.0553    3.6020    3.5688 H         1 <0>         0.3736
     64 H33        -0.3528   -0.5482    5.1819 H         1 <0>         0.3826
@<TRIPOS>BOND
     1    1    6 1
     2    1    2 1
     3    1   36 1
     4    1   37 1
     5    2    3 1
     6    2   38 1
     7    2   39 1
     8    3    4 1
     9    3   40 1
    10    3   41 1
    11    4    5 1
    12    4    7 1
    13    5    6 1
    14    5   42 1
    15    5   43 1
    16    6   44 1
    17    6   45 1
    18    7   12 ar
    19    7    8 ar
    20    8    9 ar
    21    9   10 ar
    22    9   19 1
    23   10   11 ar
    24   11   12 ar
    25   11   13 1
    26   13   18 1
    27   13   14 1
    28   14   15 1
    29   14   46 1
    30   14   47 1
    31   15   16 1
    32   15   48 1
    33   15   49 1
    34   16   17 1
    35   16   50 1
    36   16   51 1
    37   17   18 1
    38   17   52 1
    39   17   53 1
    40   18   54 1
    41   18   55 1
    42   19   20 1
    43   19   56 1
    44   20   21 2
    45   21   22 1
    46   21   57 1
    47   22   23 1
    48   22   24 1
    49   22   35 1
    50   24   25 1
    51   24   26 1
    52   24   34 1
    53   26   27 1
    54   26   28 1
    55   26   33 1
    56   28   29 1
    57   28   30 1
    58   28   32 1
    59   30   31 1
    60   30   58 1
    61   30   59 1
    62   31   60 1
    63   32   61 1
    64   33   62 1
    65   34   63 1
    66   35   64 1
@<TRIPOS>MOLECULE
ZINC13298459
   78    81     0     0     0
SMALL
USER_CHARGES
(2S,3R,5S,9S,10R,13R,14S,17R)-2,3,14-trihydroxy-10,13-dimethyl-17-[(1R,2R)-1,2,5-trihydroxy-1,5-dimethyl-hexyl]-2,3,4,5,9,11,12,15,16,17-decahydro-1H-cyclopenta[a]phenanthren-6-one
@<TRIPOS>ATOM
      1 C1          5.0676    3.7472    1.1138 C.3       1 <0>        -0.1602
      2 C2          3.5903    4.1412    1.2988 C.3       1 <0>        -0.0239
      3 C3          3.4208    5.5791    0.9173 C.3       1 <0>        -0.1392
      4 C4          3.6949    6.5377    2.0877 C.3       1 <0>        -0.1009
      5 C5          4.6199    5.9260    3.1209 C.3       1 <0>        -0.0654
      6 H1          5.5365    5.6564    2.5844 H         1 <0>         0.0935
      7 C6          4.0599    4.6443    3.6683 C.2       1 <0>        -0.0377
      8 C7          4.2676    4.2314    4.9178 C.2       1 <0>        -0.2386
      9 C8          4.8092    5.2111    5.8806 C.2       1 <0>         0.3998
     10 O1          5.4320    4.8964    6.8646 O.2       1 <0>        -0.4381
     11 C9          4.5016    6.6544    5.5212 C.3       1 <0>        -0.1110
     12 H2          3.5109    6.7835    5.4788 H         1 <0>         0.0928
     13 C10         5.1301    6.9040    4.1562 C.3       1 <0>        -0.0327
     14 C11         4.9525    8.3432    3.7059 C.3       1 <0>        -0.0951
     15 C12         5.3732    9.3516    4.7676 C.3       1 <0>         0.0808
     16 H3          5.0283   10.3462    4.4466 H         1 <0>         0.0510
     17 C13         4.7436    9.0502    6.1232 C.3       1 <0>         0.0755
     18 H4          3.6638    9.1775    6.0540 H         1 <0>         0.0634
     19 C14         5.0591    7.6151    6.5617 C.3       1 <0>        -0.0969
     20 O2          5.2597    9.9654    7.1009 O.3       1 <0>        -0.5626
     21 O3          6.7969    9.4154    4.8870 O.3       1 <0>        -0.5532
     22 C15         6.6364    6.6089    4.2678 C.3       1 <0>        -0.1572
     23 C16         3.1520    3.8675    2.7569 C.3       1 <0>         0.1488
     24 C17         3.2888    2.3380    2.8411 C.3       1 <0>        -0.1441
     25 C18         2.7812    1.8557    1.4567 C.3       1 <0>        -0.1136
     26 C19         2.8036    3.0853    0.5137 C.3       1 <0>        -0.1021
     27 H5          3.3635    2.8412   -0.3962 H         1 <0>         0.0796
     28 C20         1.3928    3.5298    0.1642 C.3       1 <0>         0.1194
     29 C21         0.5498    3.6000    1.4390 C.3       1 <0>        -0.1411
     30 C22         0.7675    2.5257   -0.8062 C.3       1 <0>         0.0799
     31 H6          0.7331    1.5417   -0.3387 H         1 <0>         0.1007
     32 C23        -0.6527    2.9732   -1.1580 C.3       1 <0>        -0.1460
     33 C24        -1.3224    1.9075   -2.0280 C.3       1 <0>        -0.1404
     34 C25        -2.7426    2.3550   -2.3798 C.3       1 <0>         0.1255
     35 C26        -3.4550    1.2370   -3.1436 C.3       1 <0>        -0.1802
     36 C27        -3.5125    2.6655   -1.0946 C.3       1 <0>        -0.1432
     37 O4         -2.6845    3.5270   -3.1952 O.3       1 <0>        -0.5592
     38 O5          1.5549    2.4601   -1.9969 O.3       1 <0>        -0.5571
     39 O6          1.4380    4.8199   -0.4487 O.3       1 <0>        -0.5371
     40 O7          1.7857    4.2442    2.9967 O.3       1 <0>        -0.5030
     41 H7          5.3515    3.8812    0.0700 H         1 <0>         0.0612
     42 H8          5.6936    4.3783    1.7446 H         1 <0>         0.0615
     43 H9          5.2032    2.7031    1.3960 H         1 <0>         0.0587
     44 H10         4.1259    5.8126    0.1010 H         1 <0>         0.0479
     45 H11         2.4168    5.7781    0.5331 H         1 <0>         0.1307
     46 H12         4.1564    7.4458    1.6829 H         1 <0>         0.0655
     47 H13         2.7438    6.8185    2.5500 H         1 <0>         0.0659
     48 H14         3.9628    3.2565    5.2481 H         1 <0>         0.1392
     49 H15         3.9053    8.5202    3.4417 H         1 <0>         0.0846
     50 H16         5.5571    8.5071    2.8021 H         1 <0>         0.0826
     51 H17         4.5715    7.4313    7.5244 H         1 <0>         0.0733
     52 H18         6.1296    7.4909    6.6851 H         1 <0>         0.0867
     53 H19         5.0985   10.8958    6.8925 H         1 <0>         0.3776
     54 H20         7.1102   10.0969    5.4974 H         1 <0>         0.3797
     55 H21         7.1097    6.7637    3.2982 H         1 <0>         0.0588
     56 H22         7.0844    7.2786    5.0019 H         1 <0>         0.0832
     57 H23         6.7818    5.5754    4.5823 H         1 <0>         0.0468
     58 H24         4.3175    2.0362    3.0193 H         1 <0>         0.0789
     59 H25         2.6417    1.9461    3.6382 H         1 <0>         0.0704
     60 H26         1.7684    1.4633    1.5429 H         1 <0>         0.0726
     61 H27         3.4473    1.0798    1.0637 H         1 <0>         0.0648
     62 H28         0.9472    2.9025    2.1763 H         1 <0>         0.0947
     63 H29         0.5833    4.6124    1.8415 H         1 <0>         0.1030
     64 H30        -0.4819    3.3351    1.2074 H         1 <0>         0.0402
     65 H31        -0.6119    3.9154   -1.7045 H         1 <0>         0.0769
     66 H32        -1.2282    3.1089   -0.2423 H         1 <0>         0.0819
     67 H33        -0.7469    1.7718   -2.9437 H         1 <0>         0.0690
     68 H34        -1.3632    0.9653   -1.4814 H         1 <0>         0.0673
     69 H35        -3.4993    0.3430   -2.5216 H         1 <0>         0.0650
     70 H36        -4.4668    1.5557   -3.3942 H         1 <0>         0.0635
     71 H37        -2.9065    1.0157   -4.0592 H         1 <0>         0.0576
     72 H38        -3.0050    3.4620   -0.5504 H         1 <0>         0.0667
     73 H39        -4.5243    2.9843   -1.3452 H         1 <0>         0.0609
     74 H40        -3.5568    1.7715   -0.4726 H         1 <0>         0.0683
     75 H41        -2.2097    3.4032   -4.0285 H         1 <0>         0.3741
     76 H42         1.6291    3.3023   -2.4662 H         1 <0>         0.3688
     77 H43         1.9568    4.8500   -1.2641 H         1 <0>         0.3658
     78 H44         1.4863    4.0832    3.9020 H         1 <0>         0.3551
@<TRIPOS>BOND
     1    1    2 1
     2    1   41 1
     3    1   42 1
     4    1   43 1
     5    2   23 1
     6    2   26 1
     7    2    3 1
     8    3    4 1
     9    3   44 1
    10    3   45 1
    11    4    5 1
    12    4   46 1
    13    4   47 1
    14    5    6 1
    15    5   13 1
    16    5    7 1
    17    7    8 2
    18    7   23 1
    19    8    9 1
    20    8   48 1
    21    9   10 2
    22    9   11 1
    23   11   12 1
    24   11   19 1
    25   11   13 1
    26   13   14 1
    27   13   22 1
    28   14   15 1
    29   14   49 1
    30   14   50 1
    31   15   16 1
    32   15   17 1
    33   15   21 1
    34   17   18 1
    35   17   19 1
    36   17   20 1
    37   19   51 1
    38   19   52 1
    39   20   53 1
    40   21   54 1
    41   22   55 1
    42   22   56 1
    43   22   57 1
    44   23   24 1
    45   23   40 1
    46   24   25 1
    47   24   58 1
    48   24   59 1
    49   25   26 1
    50   25   60 1
    51   25   61 1
    52   26   27 1
    53   26   28 1
    54   28   29 1
    55   28   30 1
    56   28   39 1
    57   29   62 1
    58   29   63 1
    59   29   64 1
    60   30   31 1
    61   30   32 1
    62   30   38 1
    63   32   33 1
    64   32   65 1
    65   32   66 1
    66   33   34 1
    67   33   67 1
    68   33   68 1
    69   34   35 1
    70   34   36 1
    71   34   37 1
    72   35   69 1
    73   35   70 1
    74   35   71 1
    75   36   72 1
    76   36   73 1
    77   36   74 1
    78   37   75 1
    79   38   76 1
    80   39   77 1
    81   40   78 1
@<TRIPOS>MOLECULE
ZINC25574314
   42    44     0     0     0
SMALL
USER_CHARGES

@<TRIPOS>ATOM
      1 C1          0.4284   -2.0508    1.3338 C.ar      1 <0>        -0.0935
      2 C2          0.7979   -3.1587    2.0736 C.ar      1 <0>        -0.0945
      3 C3         -0.1519   -4.0968    2.4352 C.ar      1 <0>        -0.0297
      4 C4         -1.4727   -3.9255    2.0559 C.ar      1 <0>        -0.0251
      5 C5         -1.8405   -2.8165    1.3158 C.ar      1 <0>        -0.0792
      6 C6         -0.8899   -1.8799    0.9551 C.ar      1 <0>        -0.0942
      7 C7         -1.2912   -0.6714    0.1490 C.3       1 <0>         0.1757
      8 H1         -0.5681    0.1284    0.3088 H         1 <0>         0.1085
      9 C8         -1.3260   -1.0323   -1.3137 C.2       1 <0>         0.1002
     10 N1         -0.2946   -0.7929   -2.0666 N.2       1 <0>        -0.1238
     11 N2          0.8161   -0.1207   -1.5401 N.pl3     1 <0>        -0.6198
     12 C9          1.8605    0.2350   -2.3647 C.2       1 <0>         0.6365
     13 N3          1.8154   -0.0537   -3.6348 N.2       1 <0>        -0.7888
     14 N4          2.9510    0.8950   -1.8478 N.pl3     1 <0>        -0.8523
     15 C10        -2.5281   -1.6556   -1.8893 C.ar      1 <0>         0.1224
     16 C11        -2.5211   -2.0879   -3.2392 C.ar      1 <0>         0.4054
     17 N5         -3.5899   -2.6461   -3.7645 N.ar      1 <0>        -0.5428
     18 C12        -4.6930   -2.8081   -3.0196 C.ar      1 <0>         0.1652
     19 C13        -5.8451   -3.4019   -3.5595 C.ar      1 <0>        -0.0372
     20 C14        -6.9537   -3.5562   -2.7834 C.ar      1 <0>        -0.0155
     21 C15        -6.9636   -3.1327   -1.4562 C.ar      1 <0>        -0.1403
     22 C16        -5.8653   -2.5529   -0.8988 C.ar      1 <0>        -0.0309
     23 C17        -4.7024   -2.3770   -1.6694 C.ar      1 <0>         0.0020
     24 N6         -3.6090   -1.8150   -1.1426 N.ar      1 <0>        -0.4206
     25 N7         -8.1654   -4.1825   -3.3584 N.pl3     1 <0>         0.0376
     26 O1         -8.1663   -4.5528   -4.5093 O.2       1 <0>        -0.1695
     27 O2         -9.1541   -4.3238   -2.6772 O.3       1 <0>        -0.1667
     28 O3         -1.4071   -1.9247   -3.9928 O.3       1 <0>        -0.6124
     29 O4         -2.5866   -0.2320    0.5622 O.3       1 <0>        -0.5437
     30 Cl1        -2.6660   -5.1023    2.5085 Cl        1 <0>        -0.0436
     31 Cl2         0.3115   -5.4885    3.3637 Cl        1 <0>        -0.0497
     32 H2          1.1695   -1.3162    1.0554 H         1 <0>         0.1333
     33 H3          1.8281   -3.2919    2.3688 H         1 <0>         0.1453
     34 H4         -2.8703   -2.6825    1.0193 H         1 <0>         0.1516
     35 H5          2.9845    1.1099   -0.9025 H         1 <0>         0.3970
     36 H6          3.6864    1.1455   -2.4285 H         1 <0>         0.4194
     37 H7         -5.8524   -3.7348   -4.5868 H         1 <0>         0.1559
     38 H8         -7.8552   -3.2659   -0.8614 H         1 <0>         0.1457
     39 H9         -5.8870   -2.2296    0.1315 H         1 <0>         0.1432
     40 H10        -3.2544   -0.9314    0.5726 H         1 <0>         0.3926
     41 H11         1.0464   -0.5192   -3.9993 H         1 <0>         0.3722
     42 H12         0.8497    0.0942   -0.5948 H         1 <0>         0.3642
@<TRIPOS>BOND
     1    1    6 ar
     2    1    2 ar
     3    1   32 1
     4    2    3 ar
     5    2   33 1
     6    3    4 ar
     7    3   31 1
     8    4    5 ar
     9    4   30 1
    10    5    6 ar
    11    5   34 1
    12    6    7 1
    13    7    8 1
    14    7    9 1
    15    7   29 1
    16    9   10 2
    17    9   15 1
    18   10   11 1
    19   11   12 1
    20   11   42 1
    21   12   13 2
    22   12   14 1
    23   13   41 1
    24   14   35 1
    25   14   36 1
    26   15   24 ar
    27   15   16 ar
    28   16   17 ar
    29   16   28 1
    30   17   18 ar
    31   18   23 ar
    32   18   19 ar
    33   19   20 ar
    34   19   37 1
    35   20   21 ar
    36   20   25 1
    37   21   22 ar
    38   21   38 1
    39   22   23 ar
    40   22   39 1
    41   23   24 ar
    42   25   26 2
    43   25   27 1
    44   29   40 1
@<TRIPOS>MOLECULE
ZINC09186941
   47    50     0     0     0
SMALL
USER_CHARGES

@<TRIPOS>ATOM
      1 C1         -0.0167    1.3780    0.0096 C.ar      1 <0>        -0.1039
      2 C2          1.1709    2.0859    0.0021 C.ar      1 <0>        -0.1060
      3 C3          2.3773    1.4120   -0.0131 C.ar      1 <0>        -0.0911
      4 C4          2.3966    0.0286   -0.0207 C.ar      1 <0>        -0.0748
      5 C5          1.2084   -0.6791   -0.0132 C.ar      1 <0>        -0.0509
      6 C6          0.0021   -0.0041    0.0020 C.ar      1 <0>        -0.0937
      7 C7          1.2287   -2.1859   -0.0220 C.3       1 <0>        -0.0838
      8 S1          1.2535   -2.8003    1.6846 S.3       1 <0>         0.0365
      9 C8          1.2755   -4.5531    1.5064 C.2       1 <0>         0.2192
     10 N1          1.2788   -5.1958    0.3656 N.2       1 <0>        -0.4145
     11 C9          1.2977   -6.5335    0.6050 C.2       1 <0>        -0.1342
     12 C10         1.3088   -7.6782   -0.2230 C.2       1 <0>         0.5971
     13 O1          1.3022   -7.5705   -1.4379 O.2       1 <0>        -0.5049
     14 N2          1.3273   -8.8954    0.3638 N.am      1 <0>        -0.6557
     15 H1          1.3355   -9.6955   -0.1845 H         1 <0>         0.4209
     16 C11         1.3350   -9.0040    1.7224 C.2       1 <0>         0.6590
     17 N3          1.3244   -7.9466    2.5029 N.2       1 <0>        -0.5760
     18 C12         1.3064   -6.7099    1.9918 C.2       1 <0>         0.3347
     19 N4          1.2976   -5.4514    2.5396 N.pl3     1 <0>        -0.4305
     20 C13         1.3073   -5.1283    3.9685 C.3       1 <0>         0.3078
     21 H2          1.6014   -5.9984    4.5556 H         1 <0>         0.1295
     22 C14        -0.0815   -4.6092    4.4202 C.3       1 <0>         0.0730
     23 H3         -0.5357   -3.9899    3.6467 H         1 <0>         0.0997
     24 C15         0.2779   -3.7627    5.6655 C.3       1 <0>         0.0490
     25 H4          0.1188   -4.3385    6.5772 H         1 <0>         0.0960
     26 C16         1.7741   -3.4413    5.4847 C.3       1 <0>         0.0521
     27 H5          2.3489   -3.8817    6.2995 H         1 <0>         0.0944
     28 O2          2.1887   -4.0156    4.2322 O.3       1 <0>        -0.3334
     29 C17         1.9817   -1.9257    5.4617 C.3       1 <0>         0.0824
     30 O3          3.3803   -1.6371    5.4110 O.3       1 <0>        -0.5613
     31 O4         -0.4947   -2.5608    5.6933 O.3       1 <0>        -0.5465
     32 O5         -0.9421   -5.6946    4.7716 O.3       1 <0>        -0.5404
     33 N5          1.3538  -10.2535    2.2918 N.pl3     1 <0>        -0.8161
     34 Br1         4.0470   -0.8942   -0.0421 Br        1 <0>        -0.0342
     35 H6         -0.9592    1.9050    0.0260 H         1 <0>         0.1332
     36 H7          1.1558    3.1658    0.0077 H         1 <0>         0.1343
     37 H8          3.3049    1.9651   -0.0193 H         1 <0>         0.1362
     38 H9         -0.9258   -0.5567    0.0083 H         1 <0>         0.1357
     39 H10         0.3387   -2.5583   -0.5293 H         1 <0>         0.1087
     40 H11         2.1184   -2.5343   -0.5465 H         1 <0>         0.1140
     41 H12         1.4919   -1.5051    4.5835 H         1 <0>         0.0681
     42 H13         1.5525   -1.4865    6.3623 H         1 <0>         0.0593
     43 H14         3.5867   -0.6925    5.3941 H         1 <0>         0.3839
     44 H15        -0.3099   -1.9920    6.4531 H         1 <0>         0.3863
     45 H16        -1.8231   -5.4203    5.0609 H         1 <0>         0.3924
     46 H17         1.3615  -11.0431    1.7285 H         1 <0>         0.4182
     47 H18         1.3595  -10.3464    3.2573 H         1 <0>         0.4302
@<TRIPOS>BOND
     1    1    6 ar
     2    1    2 ar
     3    1   35 1
     4    2    3 ar
     5    2   36 1
     6    3    4 ar
     7    3   37 1
     8    4    5 ar
     9    4   34 1
    10    5    6 ar
    11    5    7 1
    12    6   38 1
    13    7    8 1
    14    7   39 1
    15    7   40 1
    16    8    9 1
    17    9   19 1
    18    9   10 2
    19   10   11 1
    20   11   18 2
    21   11   12 1
    22   12   13 2
    23   12   14 am
    24   14   15 1
    25   14   16 1
    26   16   17 2
    27   16   33 1
    28   17   18 1
    29   18   19 1
    30   19   20 1
    31   20   21 1
    32   20   28 1
    33   20   22 1
    34   22   23 1
    35   22   24 1
    36   22   32 1
    37   24   25 1
    38   24   26 1
    39   24   31 1
    40   26   27 1
    41   26   28 1
    42   26   29 1
    43   29   30 1
    44   29   41 1
    45   29   42 1
    46   30   43 1
    47   31   44 1
    48   32   45 1
    49   33   46 1
    50   33   47 1
@<TRIPOS>MOLECULE
ZINC40744491
   60    62     0     0     0
SMALL
USER_CHARGES

@<TRIPOS>ATOM
      1 C1          1.6267    1.1460    1.3087 C.3       1 <0>        -0.1195
      2 C2          1.5007   -0.2568    1.8448 C.ar      1 <0>        -0.0889
      3 C3          0.4440   -1.0551    1.4471 C.ar      1 <0>        -0.1030
      4 C4          0.3256   -2.3411    1.9365 C.ar      1 <0>        -0.1151
      5 C5          1.2696   -2.8325    2.8287 C.ar      1 <0>         0.1285
      6 C6          2.3300   -2.0285    3.2258 C.ar      1 <0>        -0.1341
      7 C7          2.4453   -0.7449    2.7290 C.ar      1 <0>        -0.0985
      8 N1          1.1523   -4.1348    3.3268 N.am      1 <0>        -0.6649
      9 C8          0.6306   -5.1076    2.5536 C.2       1 <0>         0.5141
     10 O1          0.3459   -4.8762    1.3975 O.2       1 <0>        -0.5008
     11 C9          0.4011   -6.4829    3.1253 C.3       1 <0>         0.0441
     12 O2         -0.1552   -7.3307    2.1184 O.3       1 <0>        -0.3063
     13 C10        -0.5255   -8.5822    2.5004 C.ar      1 <0>         0.0744
     14 C11        -1.8402   -8.8398    2.8540 C.ar      1 <0>        -0.1412
     15 C12        -2.2151  -10.1127    3.2417 C.ar      1 <0>        -0.1126
     16 C13        -1.2806  -11.1308    3.2781 C.ar      1 <0>        -0.0700
     17 C14         0.0329  -10.8805    2.9271 C.ar      1 <0>        -0.1652
     18 C15         0.4139   -9.6083    2.5316 C.ar      1 <0>         0.1251
     19 O3          1.7044   -9.3618    2.1801 O.3       1 <0>        -0.3008
     20 C16         2.6136  -10.4628    2.2360 C.3       1 <0>         0.0188
     21 C17        -2.8614   -7.7321    2.8165 C.3       1 <0>         0.0545
     22 N2         -3.2798   -7.4988    1.4278 N.4       1 <0>        -0.5038
     23 C18        -4.3513   -6.4941    1.4014 C.3       1 <0>        -0.0223
     24 C19        -4.7871   -6.2511   -0.0449 C.3       1 <0>         0.0934
     25 N3         -5.8556   -5.2492   -0.0712 N.am      1 <0>        -0.7111
     26 C20        -6.3987   -4.8739   -1.2462 C.2       1 <0>         0.6094
     27 O4         -6.0021   -5.3665   -2.2838 O.2       1 <0>        -0.4948
     28 C21        -7.4791   -3.8609   -1.2727 C.2       1 <0>         0.0183
     29 C22        -8.1628   -3.3644   -2.4723 C.2       1 <0>         0.3622
     30 N4         -9.0517   -2.4830   -2.1024 N.2       1 <0>        -0.3405
     31 O5         -8.9909   -2.3679   -0.6919 O.3       1 <0>         0.0570
     32 N5         -7.9914   -3.2596   -0.2307 N.2       1 <0>        -0.2245
     33 N6         -7.9078   -3.7635   -3.7771 N.pl3     1 <0>        -0.8018
     34 H1          2.2140    1.1326    0.3905 H         1 <0>         0.0740
     35 H2          0.6344    1.5455    1.0996 H         1 <0>         0.0686
     36 H3          2.1230    1.7744    2.0483 H         1 <0>         0.0700
     37 H4         -0.2898   -0.6723    0.7532 H         1 <0>         0.1269
     38 H5         -0.5003   -2.9638    1.6261 H         1 <0>         0.1289
     39 H6          3.0655   -2.4076    3.9198 H         1 <0>         0.1282
     40 H7          3.2719   -0.1206    3.0343 H         1 <0>         0.1309
     41 H8          1.4465   -4.3375    4.2287 H         1 <0>         0.4139
     42 H9          1.3497   -6.8977    3.4661 H         1 <0>         0.0999
     43 H10        -0.2893   -6.4162    3.9662 H         1 <0>         0.0903
     44 H11        -3.2402  -10.3121    3.5170 H         1 <0>         0.1435
     45 H12        -1.5772  -12.1239    3.5819 H         1 <0>         0.1454
     46 H13         0.7611  -11.6776    2.9567 H         1 <0>         0.1475
     47 H14         3.6060  -10.1302    1.9316 H         1 <0>         0.1125
     48 H15         2.6560  -10.8477    3.2549 H         1 <0>         0.0637
     49 H16         2.2724  -11.2503    1.5640 H         1 <0>         0.0645
     50 H17        -3.7276   -8.0161    3.4141 H         1 <0>         0.1465
     51 H18        -2.4234   -6.8202    3.2221 H         1 <0>         0.1357
     52 H19        -2.4931   -7.1656    0.8909 H         1 <0>         0.4392
     53 H20        -5.2011   -6.8541    1.9814 H         1 <0>         0.1440
     54 H21        -3.9860   -5.5620    1.8324 H         1 <0>         0.1423
     55 H22        -3.9372   -5.8912   -0.6248 H         1 <0>         0.1016
     56 H23        -5.1524   -7.1833   -0.4759 H         1 <0>         0.1003
     57 H24        -6.1722   -4.8560    0.7571 H         1 <0>         0.4187
     58 H25        -7.2245   -4.4282   -3.9562 H         1 <0>         0.4287
     59 H26        -8.4131   -3.3778   -4.5097 H         1 <0>         0.4225
     60 H27        -3.6180   -8.3617    1.0289 H         1 <0>         0.4316
@<TRIPOS>BOND
     1    1    2 1
     2    1   34 1
     3    1   35 1
     4    1   36 1
     5    2    7 ar
     6    2    3 ar
     7    3    4 ar
     8    3   37 1
     9    4    5 ar
    10    4   38 1
    11    5    6 ar
    12    5    8 1
    13    6    7 ar
    14    6   39 1
    15    7   40 1
    16    8    9 am
    17    8   41 1
    18    9   10 2
    19    9   11 1
    20   11   12 1
    21   11   42 1
    22   11   43 1
    23   12   13 1
    24   13   18 ar
    25   13   14 ar
    26   14   15 ar
    27   14   21 1
    28   15   16 ar
    29   15   44 1
    30   16   17 ar
    31   16   45 1
    32   17   18 ar
    33   17   46 1
    34   18   19 1
    35   19   20 1
    36   20   47 1
    37   20   48 1
    38   20   49 1
    39   21   22 1
    40   21   50 1
    41   21   51 1
    42   22   23 1
    43   22   52 1
    44   22   60 1
    45   23   24 1
    46   23   53 1
    47   23   54 1
    48   24   25 1
    49   24   55 1
    50   24   56 1
    51   25   26 am
    52   25   57 1
    53   26   27 2
    54   26   28 1
    55   28   32 2
    56   28   29 1
    57   29   30 2
    58   29   33 1
    59   30   31 1
    60   31   32 1
    61   33   58 1
    62   33   59 1
@<TRIPOS>MOLECULE
ZINC06462115
   67    69     0     0     0
SMALL
USER_CHARGES
4-amino-N'-[1,1-dimethylpropylcarbamoyl-(5-methyl-2-furyl)-methyl]-N'-[(3-methoxyphenyl)methyl]isothiazole-3,5-dicarboxamide
@<TRIPOS>ATOM
      1 C1         -4.0222    6.9941   10.4487 C.3       1 <0>        -0.1533
      2 C2         -3.6800    6.6668    8.9939 C.3       1 <0>        -0.1252
      3 C3         -2.5102    5.6814    8.9544 C.3       1 <0>         0.1767
      4 C4         -2.9006    4.3967    9.6880 C.3       1 <0>        -0.1647
      5 C5         -1.2923    6.3080    9.6363 C.3       1 <0>        -0.1644
      6 N1         -2.1825    5.3680    7.5614 N.am      1 <0>        -0.7199
      7 C6         -1.1776    4.5147    7.2811 C.2       1 <0>         0.5112
      8 O1         -0.5445    4.0065    8.1821 O.2       1 <0>        -0.4939
      9 C7         -0.8405    4.1923    5.8481 C.3       1 <0>         0.2252
     10 H1         -1.7560    3.9658    5.3016 H         1 <0>         0.1349
     11 C8         -0.1569    5.3763    5.2142 C.2       1 <0>        -0.0234
     12 C9         -0.7556    6.3273    4.4748 C.2       1 <0>        -0.1914
     13 C10         0.2530    7.2379    4.0842 C.2       1 <0>        -0.2172
     14 C11         1.4076    6.7889    4.6082 C.2       1 <0>        -0.0042
     15 O2          1.1523    5.6642    5.2964 O.3       1 <0>        -0.1282
     16 C12         2.7575    7.4412    4.4551 C.3       1 <0>        -0.0751
     17 N2          0.0531    3.0322    5.8058 N.am      1 <0>        -0.5997
     18 C13        -0.3423    1.8295    5.0687 C.3       1 <0>         0.1606
     19 C14         0.2163    1.8908    3.6704 C.ar      1 <0>        -0.0745
     20 C15         1.5072    1.4611    3.4227 C.ar      1 <0>        -0.1474
     21 C16         2.0227    1.5165    2.1412 C.ar      1 <0>        -0.0743
     22 C17         1.2488    2.0013    1.1043 C.ar      1 <0>        -0.1990
     23 C18        -0.0465    2.4325    1.3501 C.ar      1 <0>         0.1305
     24 C19        -0.5596    2.3812    2.6383 C.ar      1 <0>        -0.1281
     25 O3         -0.8097    2.9097    0.3319 O.3       1 <0>        -0.3156
     26 C20        -0.2143    2.9388   -0.9667 C.3       1 <0>         0.0268
     27 C21         1.2391    3.0714    6.4449 C.2       1 <0>         0.6335
     28 O4          1.6113    4.1023    6.9742 O.2       1 <0>        -0.4870
     29 C22         2.0796    1.8739    6.5026 C.2       1 <0>        -0.3832
     30 C23         3.3930    1.7355    6.9552 C.2       1 <0>         0.2755
     31 C24         3.8581    0.4245    6.8524 C.2       1 <0>        -0.0338
     32 N3          3.0635   -0.5039    6.3674 N.2       1 <0>        -0.4579
     33 S1          1.6976    0.2024    6.0214 S.3       1 <0>         0.4532
     34 C25         5.2266    0.0836    7.2824 C.2       1 <0>         0.6014
     35 O5          5.9563    0.9474    7.7297 O.2       1 <0>        -0.5414
     36 N4          5.6687   -1.1855    7.1799 N.am      1 <0>        -0.8312
     37 N5          4.1519    2.7863    7.4530 N.pl3     1 <0>        -0.8043
     38 H2         -4.3003    6.0789   10.9714 H         1 <0>         0.0609
     39 H3         -3.1545    7.4406   10.9345 H         1 <0>         0.0608
     40 H4         -4.8556    7.6962   10.4769 H         1 <0>         0.0584
     41 H5         -3.4019    7.5820    8.4713 H         1 <0>         0.0682
     42 H6         -4.5477    6.2204    8.5081 H         1 <0>         0.0684
     43 H7         -2.0672    3.6947    9.6599 H         1 <0>         0.0767
     44 H8         -3.1444    4.6300   10.7245 H         1 <0>         0.0665
     45 H9         -3.7683    3.9503    9.2023 H         1 <0>         0.0537
     46 H10        -1.0142    7.2233    9.1136 H         1 <0>         0.0522
     47 H11        -1.5361    6.5413   10.6727 H         1 <0>         0.0648
     48 H12        -0.4589    5.6060    9.6081 H         1 <0>         0.0788
     49 H13        -2.6888    5.7745    6.8408 H         1 <0>         0.3979
     50 H14        -1.8051    6.3841    4.2266 H         1 <0>         0.1476
     51 H15         0.1217    8.1238    3.4806 H         1 <0>         0.1460
     52 H16         2.9123    8.1510    5.2677 H         1 <0>         0.0813
     53 H17         3.5353    6.6782    4.4861 H         1 <0>         0.0747
     54 H18         2.8012    7.9661    3.5009 H         1 <0>         0.0868
     55 H19        -1.4299    1.7723    5.0233 H         1 <0>         0.1090
     56 H20         0.0470    0.9474    5.5771 H         1 <0>         0.0797
     57 H21         2.1137    1.0819    4.2318 H         1 <0>         0.1206
     58 H22         3.0314    1.1810    1.9504 H         1 <0>         0.1255
     59 H23         1.6521    2.0447    0.1034 H         1 <0>         0.1292
     60 H24        -1.5661    2.7209    2.8330 H         1 <0>         0.1319
     61 H25         0.0667    1.9274   -1.2604 H         1 <0>         0.0565
     62 H26         0.6736    3.5708   -0.9452 H         1 <0>         0.0555
     63 H27        -0.9288    3.3405   -1.6852 H         1 <0>         0.1018
     64 H28         5.0866   -1.8745    6.8231 H         1 <0>         0.4115
     65 H29         6.5690   -1.4098    7.4628 H         1 <0>         0.4093
     66 H30         3.7733    3.6781    7.5006 H         1 <0>         0.4168
     67 H31         5.0606    2.6286    7.7533 H         1 <0>         0.4182
@<TRIPOS>BOND
     1    1    2 1
     2    1   38 1
     3    1   39 1
     4    1   40 1
     5    2    3 1
     6    2   41 1
     7    2   42 1
     8    3    4 1
     9    3    5 1
    10    3    6 1
    11    4   43 1
    12    4   44 1
    13    4   45 1
    14    5   46 1
    15    5   47 1
    16    5   48 1
    17    6    7 am
    18    6   49 1
    19    7    8 2
    20    7    9 1
    21    9   10 1
    22    9   11 1
    23    9   17 1
    24   11   15 1
    25   11   12 2
    26   12   13 1
    27   12   50 1
    28   13   14 2
    29   13   51 1
    30   14   15 1
    31   14   16 1
    32   16   52 1
    33   16   53 1
    34   16   54 1
    35   17   18 1
    36   17   27 am
    37   18   19 1
    38   18   55 1
    39   18   56 1
    40   19   24 ar
    41   19   20 ar
    42   20   21 ar
    43   20   57 1
    44   21   22 ar
    45   21   58 1
    46   22   23 ar
    47   22   59 1
    48   23   24 ar
    49   23   25 1
    50   24   60 1
    51   25   26 1
    52   26   61 1
    53   26   62 1
    54   26   63 1
    55   27   28 2
    56   27   29 1
    57   29   33 1
    58   29   30 2
    59   30   31 1
    60   30   37 1
    61   31   32 2
    62   31   34 1
    63   32   33 1
    64   34   35 2
    65   34   36 am
    66   36   64 1
    67   36   65 1
    68   37   66 1
    69   37   67 1
@<TRIPOS>MOLECULE
ZINC04260516
   70    72     0     0     0
SMALL
USER_CHARGES
2-[(4S,4aR,7R,8R,8aS)-7-hydroxy-8-(hydroxymethyl)-4a,8-dimethyl-2-[(2-methylsulfanylacetyl)amino]-4,5,6,7,8a,9-hexahydrobenzo[f][1,3]benzothiazol-4-yl]-N-(2-acetamidoethyl)acetamide
@<TRIPOS>ATOM
      1 C1         10.8086    2.1876    0.9500 C.3       1 <0>        -0.1732
      2 C2          9.6638    1.4053    1.5402 C.2       1 <0>         0.5119
      3 O1          9.7788    0.8939    2.6339 O.2       1 <0>        -0.5435
      4 N1          8.5120    1.2740    0.8527 N.am      1 <0>        -0.7306
      5 C3          7.3991    0.5135    1.4264 C.3       1 <0>         0.1065
      6 C4          6.2209    0.5188    0.4503 C.3       1 <0>         0.1158
      7 N2          5.1080   -0.2417    1.0240 N.am      1 <0>        -0.7392
      8 C5          3.9562   -0.3730    0.3365 C.2       1 <0>         0.5174
      9 O2          3.8412    0.1385   -0.7572 O.2       1 <0>        -0.4995
     10 C6          2.8113   -1.1553    0.9267 C.3       1 <0>        -0.1331
     11 C7          1.6332   -1.1500   -0.0494 C.3       1 <0>         0.0197
     12 H1          1.9735   -1.4791   -1.0313 H         1 <0>         0.0955
     13 C8          1.0684    0.2584   -0.1546 C.2       1 <0>         0.0978
     14 C9         -0.2751    0.4516   -0.1982 C.2       1 <0>        -0.2353
     15 S1         -0.4108    2.2148   -0.3227 S.3       1 <0>         0.1546
     16 C10         1.2929    2.5606   -0.3066 C.2       1 <0>         0.2758
     17 N3          1.8179    1.3568   -0.2118 N.2       1 <0>        -0.5081
     18 N4          1.9354    3.7912   -0.3764 N.am      1 <0>        -0.6066
     19 C11         1.2123    4.9246   -0.4709 C.2       1 <0>         0.5315
     20 O3          0.0009    4.8708   -0.4952 O.2       1 <0>        -0.4763
     21 C12         1.9090    6.2588   -0.5466 C.3       1 <0>        -0.1254
     22 S2          0.6724    7.5807   -0.6659 S.3       1 <0>        -0.1751
     23 C13         1.6605    9.0998   -0.7475 C.3       1 <0>        -0.1404
     24 C14        -1.3449   -0.5810   -0.1490 C.3       1 <0>        -0.0347
     25 C15        -0.7181   -1.9672   -0.3967 C.3       1 <0>        -0.0543
     26 H2         -0.4661   -2.0794   -1.4512 H         1 <0>         0.0874
     27 C16         0.5431   -2.1023    0.4596 C.3       1 <0>        -0.0461
     28 C17         1.0962   -3.5280    0.3630 C.3       1 <0>        -0.1113
     29 C18         0.0573   -4.5447    0.7875 C.3       1 <0>        -0.1570
     30 C19        -1.1606   -4.4256   -0.1336 C.3       1 <0>         0.1197
     31 H3         -0.8571   -4.5900   -1.1675 H         1 <0>         0.0523
     32 C20        -1.7499   -3.0240    0.0104 C.3       1 <0>        -0.0416
     33 C21        -2.9834   -2.8988   -0.8860 C.3       1 <0>        -0.1380
     34 C22        -2.1581   -2.7978    1.4675 C.3       1 <0>         0.0604
     35 O4         -3.2355   -3.6749    1.8020 O.3       1 <0>        -0.5507
     36 O5         -2.1398   -5.3976    0.2386 O.3       1 <0>        -0.5402
     37 C23         0.2118   -1.7705    1.9159 C.3       1 <0>        -0.1682
     38 H4         10.7252    3.2333    1.2463 H         1 <0>         0.0954
     39 H5         11.7523    1.7811    1.3139 H         1 <0>         0.0956
     40 H6         10.7766    2.1143   -0.1370 H         1 <0>         0.0813
     41 H7          8.4200    1.6831   -0.0220 H         1 <0>         0.4040
     42 H8          7.0933    0.9709    2.3674 H         1 <0>         0.0731
     43 H9          7.7160   -0.5135    1.6078 H         1 <0>         0.0741
     44 H10         6.5266    0.0614   -0.4907 H         1 <0>         0.0710
     45 H11         5.9039    1.5458    0.2690 H         1 <0>         0.0700
     46 H12         5.2000   -0.6507    1.8988 H         1 <0>         0.3993
     47 H13         2.5056   -0.6979    1.8677 H         1 <0>         0.0971
     48 H14         3.1283   -2.1823    1.1080 H         1 <0>         0.0978
     49 H15         2.9043    3.8342   -0.3570 H         1 <0>         0.4243
     50 H16         2.5119    6.4051    0.3496 H         1 <0>         0.1194
     51 H17         2.5529    6.2831   -1.4257 H         1 <0>         0.1200
     52 H18         0.9969    9.9613   -0.8220 H         1 <0>         0.1096
     53 H19         2.2687    9.1864    0.1529 H         1 <0>         0.0791
     54 H20         2.3096    9.0644   -1.6224 H         1 <0>         0.0793
     55 H21        -1.8211   -0.5661    0.8313 H         1 <0>         0.0921
     56 H22        -2.0874   -0.3737   -0.9196 H         1 <0>         0.0851
     57 H23         1.3795   -3.7358   -0.6688 H         1 <0>         0.0670
     58 H24         1.9757   -3.6176    1.0007 H         1 <0>         0.0716
     59 H25        -0.2415   -4.3441    1.8164 H         1 <0>         0.0772
     60 H26         0.4736   -5.5495    0.7150 H         1 <0>         0.0681
     61 H27        -2.6942   -3.0530   -1.9256 H         1 <0>         0.0500
     62 H28        -3.7193   -3.6498   -0.5984 H         1 <0>         0.0765
     63 H29        -3.4155   -1.9046   -0.7727 H         1 <0>         0.0531
     64 H30        -1.3081   -3.0017    2.1188 H         1 <0>         0.0702
     65 H31        -2.4770   -1.7639    1.5993 H         1 <0>         0.0435
     66 H32        -3.5466   -3.5862    2.7132 H         1 <0>         0.3682
     67 H33        -1.8320   -6.3118    0.1707 H         1 <0>         0.3685
     68 H34        -0.7194   -1.2054    1.9570 H         1 <0>         0.0701
     69 H35         0.1013   -2.6947    2.4831 H         1 <0>         0.0696
     70 H36         1.0174   -1.1749    2.3452 H         1 <0>         0.0611
@<TRIPOS>BOND
     1    1    2 1
     2    1   38 1
     3    1   39 1
     4    1   40 1
     5    2    3 2
     6    2    4 am
     7    4    5 1
     8    4   41 1
     9    5    6 1
    10    5   42 1
    11    5   43 1
    12    6    7 1
    13    6   44 1
    14    6   45 1
    15    7    8 am
    16    7   46 1
    17    8    9 2
    18    8   10 1
    19   10   11 1
    20   10   47 1
    21   10   48 1
    22   11   12 1
    23   11   27 1
    24   11   13 1
    25   13   17 1
    26   13   14 2
    27   14   15 1
    28   14   24 1
    29   15   16 1
    30   16   17 2
    31   16   18 1
    32   18   19 am
    33   18   49 1
    34   19   20 2
    35   19   21 1
    36   21   22 1
    37   21   50 1
    38   21   51 1
    39   22   23 1
    40   23   52 1
    41   23   53 1
    42   23   54 1
    43   24   25 1
    44   24   55 1
    45   24   56 1
    46   25   26 1
    47   25   32 1
    48   25   27 1
    49   27   28 1
    50   27   37 1
    51   28   29 1
    52   28   57 1
    53   28   58 1
    54   29   30 1
    55   29   59 1
    56   29   60 1
    57   30   31 1
    58   30   32 1
    59   30   36 1
    60   32   33 1
    61   32   34 1
    62   33   61 1
    63   33   62 1
    64   33   63 1
    65   34   35 1
    66   34   64 1
    67   34   65 1
    68   35   66 1
    69   36   67 1
    70   37   68 1
    71   37   69 1
    72   37   70 1
@<TRIPOS>MOLECULE
ZINC20527475
   51    53     0     0     0
SMALL
USER_CHARGES
2-[[4-amino-5-[(N'E)-N'-[(2-hydroxy-5-methoxy-phenyl)methylene]hydrazino]-1,2,4-triazol-3-yl]sulfanyl]-N-[4-chloro-3-(trifluoromethyl)phenyl]acetamide
@<TRIPOS>ATOM
      1 C1         -0.0906    1.4889   -0.0586 C.3       1 <0>         0.0237
      2 O1         -0.8112    2.0314    1.0497 O.3       1 <0>        -0.3181
      3 C2         -2.0730    1.5666    1.2528 C.ar      1 <0>         0.0717
      4 C3         -2.6055    0.6117    0.3967 C.ar      1 <0>        -0.1345
      5 C4         -3.8850    0.1293    0.5986 C.ar      1 <0>        -0.1393
      6 C5         -4.6494    0.6042    1.6508 C.ar      1 <0>         0.1891
      7 C6         -4.1209    1.5720    2.5153 C.ar      1 <0>        -0.1381
      8 C7         -2.8251    2.0505    2.3084 C.ar      1 <0>        -0.0750
      9 C8         -4.9281    2.0821    3.6378 C.2       1 <0>         0.1495
     10 N1         -6.1326    1.6350    3.8274 N.2       1 <0>        -0.2470
     11 N2         -6.9000    2.1199    4.8945 N.pl3     1 <0>        -0.5531
     12 C9         -8.1867    1.6423    5.0969 C.2       1 <0>         0.4838
     13 N3         -8.8005    0.7463    4.3626 N.2       1 <0>        -0.3200
     14 N4        -10.0762    0.5427    4.9048 N.2       1 <0>        -0.2992
     15 C10       -10.2033    1.3277    5.9479 C.2       1 <0>         0.1741
     16 N5         -9.0394    2.0276    6.0939 N.pl3     1 <0>        -0.2592
     17 N6         -8.7737    2.9502    7.0656 N.3       1 <0>        -0.7772
     18 S1        -11.6256    1.4565    6.9800 S.3       1 <0>         0.0786
     19 C11       -12.8015    0.2805    6.2555 C.3       1 <0>        -0.1475
     20 C12       -14.0795    0.2915    7.0540 C.2       1 <0>         0.5422
     21 O2        -14.1865    1.0209    8.0171 O.2       1 <0>        -0.5034
     22 N7        -15.1035   -0.5092    6.6980 N.am      1 <0>        -0.6785
     23 C13       -16.2475   -0.5814    7.5013 C.ar      1 <0>         0.1592
     24 C14       -16.1380   -0.4578    8.8803 C.ar      1 <0>        -0.0800
     25 C15       -17.2688   -0.5246    9.6702 C.ar      1 <0>        -0.0871
     26 C16       -18.5091   -0.7250    9.0896 C.ar      1 <0>        -0.0090
     27 C17       -18.6202   -0.8536    7.7164 C.ar      1 <0>        -0.1563
     28 C18       -17.4929   -0.7823    6.9214 C.ar      1 <0>        -0.0876
     29 C19       -19.9723   -1.0712    7.0876 C.3       1 <0>         0.5109
     30 F1        -19.8306   -1.1697    5.6993 F         1 <0>        -0.1740
     31 F2        -20.5329   -2.2529    7.5842 F         1 <0>        -0.1677
     32 F3        -20.8088    0.0071    7.3956 F         1 <0>        -0.1676
     33 Cl1       -19.9279   -0.8145   10.0859 Cl        1 <0>        -0.0398
     34 O3         -5.9093    0.1325    1.8449 O.3       1 <0>        -0.5216
     35 H1          0.9078    1.9481   -0.1070 H         1 <0>         0.1020
     36 H2         -0.6368    1.7000   -0.9898 H         1 <0>         0.0561
     37 H3          0.0119    0.4010    0.0678 H         1 <0>         0.0561
     38 H4         -2.0153    0.2408   -0.4283 H         1 <0>         0.1370
     39 H5         -4.2911   -0.6164   -0.0688 H         1 <0>         0.1378
     40 H6         -2.4114    2.7967    2.9706 H         1 <0>         0.1387
     41 H7         -4.5104    2.8416    4.3151 H         1 <0>         0.1395
     42 H8         -6.4823    2.8793    5.5719 H         1 <0>         0.4215
     43 H9         -9.5356    3.1861    7.8231 H         1 <0>         0.4507
     44 H10        -7.7978    3.4572    7.0905 H         1 <0>         0.4379
     45 H11       -13.0161    0.5698    5.2161 H         1 <0>         0.1356
     46 H12       -12.3672   -0.7300    6.2726 H         1 <0>         0.1367
     47 H13       -15.0402   -1.1060    5.7761 H         1 <0>         0.4478
     48 H14       -15.1699   -0.3060    9.3342 H         1 <0>         0.1540
     49 H15       -17.1847   -0.4248   10.7423 H         1 <0>         0.1518
     50 H16       -17.5801   -0.8831    5.8497 H         1 <0>         0.1534
     51 H17        -6.5154    0.5107    2.6813 H         1 <0>         0.4416
@<TRIPOS>BOND
     1    1    2 1
     2    1   35 1
     3    1   36 1
     4    1   37 1
     5    2    3 1
     6    3    8 ar
     7    3    4 ar
     8    4    5 ar
     9    4   38 1
    10    5    6 ar
    11    5   39 1
    12    6    7 ar
    13    6   34 1
    14    7    8 ar
    15    7    9 1
    16    8   40 1
    17    9   10 2
    18    9   41 1
    19   10   11 1
    20   11   12 1
    21   11   42 1
    22   12   16 1
    23   12   13 2
    24   13   14 1
    25   14   15 2
    26   15   16 1
    27   15   18 1
    28   16   17 1
    29   17   43 1
    30   17   44 1
    31   18   19 1
    32   19   20 1
    33   19   45 1
    34   19   46 1
    35   20   21 2
    36   20   22 am
    37   22   23 1
    38   22   47 1
    39   23   28 ar
    40   23   24 ar
    41   24   25 ar
    42   24   48 1
    43   25   26 ar
    44   25   49 1
    45   26   27 ar
    46   26   33 1
    47   27   28 ar
    48   27   29 1
    49   28   50 1
    50   29   30 1
    51   29   31 1
    52   29   32 1
    53   34   51 1
@<TRIPOS>MOLECULE
ZINC21325645
   58    60     0     0     0
SMALL
USER_CHARGES
2-[[4-amino-5-[(N'E)-N'-[(4-diethylamino-2-hydroxy-phenyl)methylene]hydrazino]-1,2,4-triazol-3-yl]sulfanyl]-N-(2,4-difluorophenyl)acetamide
@<TRIPOS>ATOM
      1 C1          4.8066    6.1684    1.2909 C.3       1 <0>        -0.1747
      2 C2          4.7983    5.6552   -0.1504 C.3       1 <0>         0.1138
      3 N1          4.8232    4.1904   -0.1474 N.pl3     1 <0>        -0.6202
      4 C3          6.1041    3.4796   -0.1608 C.3       1 <0>         0.1141
      5 C4          6.5331    3.2289   -1.6079 C.3       1 <0>        -0.1745
      6 C5          3.6269    3.4723   -0.1317 C.ar      1 <0>         0.2738
      7 C6          2.4116    4.1499   -0.1190 C.ar      1 <0>        -0.2440
      8 C7          1.2267    3.4474   -0.1025 C.ar      1 <0>        -0.0031
      9 C8          1.2437    2.0501   -0.0991 C.ar      1 <0>        -0.1582
     10 C9          2.4693    1.3685   -0.1066 C.ar      1 <0>         0.2428
     11 C10         3.6533    2.0834   -0.1284 C.ar      1 <0>        -0.3069
     12 O1          2.4935    0.0105   -0.0977 O.3       1 <0>        -0.4669
     13 C11        -0.0215    1.2957   -0.0816 C.2       1 <0>         0.1041
     14 N2         -0.0031   -0.0031   -0.0785 N.2       1 <0>        -0.1788
     15 N3         -1.2064   -0.7206   -0.0618 N.pl3     1 <0>        -0.5693
     16 C12        -1.1868   -2.1076   -0.0584 C.2       1 <0>         0.4945
     17 N4         -0.1155   -2.8633   -0.0754 N.2       1 <0>        -0.3095
     18 N5         -0.5296   -4.2016   -0.0624 N.2       1 <0>        -0.3074
     19 C13        -1.8410   -4.2200   -0.0457 C.2       1 <0>         0.1686
     20 N6         -2.2814   -2.9268   -0.0429 N.pl3     1 <0>        -0.2654
     21 N7         -3.5863   -2.5231   -0.0265 N.3       1 <0>        -0.7787
     22 S1         -2.8564   -5.6599   -0.0304 S.3       1 <0>         0.0721
     23 C14        -1.6710   -7.0330   -0.0423 C.3       1 <0>        -0.1448
     24 C15        -2.4181   -8.3417   -0.0305 C.2       1 <0>         0.5434
     25 O2         -3.6310   -8.3476   -0.0155 O.2       1 <0>        -0.5061
     26 N8         -1.7386   -9.5056   -0.0365 N.am      1 <0>        -0.6760
     27 C16        -2.4291  -10.7207    0.0686 C.ar      1 <0>         0.1100
     28 C17        -3.6823  -10.8604   -0.5114 C.ar      1 <0>        -0.0676
     29 C18        -4.3613  -12.0589   -0.4072 C.ar      1 <0>        -0.1416
     30 C19        -3.7931  -13.1217    0.2749 C.ar      1 <0>         0.1172
     31 C20        -2.5432  -12.9862    0.8547 C.ar      1 <0>        -0.1727
     32 C21        -1.8574  -11.7898    0.7491 C.ar      1 <0>         0.1062
     33 F1         -0.6353  -11.6588    1.3100 F         1 <0>        -0.1267
     34 F2         -4.4596  -14.2926    0.3750 F         1 <0>        -0.1292
     35 H1          4.7879    7.2682    1.2886 H         1 <0>         0.0658
     36 H2          5.7169    5.8182    1.7996 H         1 <0>         0.0562
     37 H3          3.9210    5.7877    1.8207 H         1 <0>         0.0608
     38 H4          3.8880    6.0054   -0.6591 H         1 <0>         0.0795
     39 H5          5.6839    6.0359   -0.6803 H         1 <0>         0.0751
     40 H6          6.8665    4.0882    0.3475 H         1 <0>         0.0752
     41 H7          5.9951    2.5175    0.3613 H         1 <0>         0.0773
     42 H8          7.4949    2.6952   -1.6180 H         1 <0>         0.0657
     43 H9          6.6421    4.1910   -2.1299 H         1 <0>         0.0568
     44 H10         5.7707    2.6203   -2.1161 H         1 <0>         0.0601
     45 H11         2.3972    5.2298   -0.1216 H         1 <0>         0.1263
     46 H12         0.2852    3.9763   -0.0927 H         1 <0>         0.1305
     47 H13         4.5987    1.5614   -0.1383 H         1 <0>         0.1282
     48 H14         3.4557   -0.5225   -0.1036 H         1 <0>         0.4263
     49 H15        -0.9818    1.8322   -0.0712 H         1 <0>         0.1151
     50 H16        -2.1666   -0.1840   -0.0514 H         1 <0>         0.3999
     51 H17        -4.3932   -3.2706   -0.0149 H         1 <0>         0.4475
     52 H18        -3.8302   -1.4505   -0.0249 H         1 <0>         0.4366
     53 H19        -1.0500   -6.9734   -0.9483 H         1 <0>         0.1345
     54 H20        -1.0278   -6.9699    0.8478 H         1 <0>         0.1345
     55 H21        -0.6421   -9.5019   -0.1239 H         1 <0>         0.4467
     56 H22        -4.1262  -10.0326   -1.0442 H         1 <0>         0.1607
     57 H23        -5.3364  -12.1673   -0.8586 H         1 <0>         0.1485
     58 H24        -2.1016  -13.8164    1.3860 H         1 <0>         0.1540
@<TRIPOS>BOND
     1    1    2 1
     2    1   35 1
     3    1   36 1
     4    1   37 1
     5    2    3 1
     6    2   38 1
     7    2   39 1
     8    3    4 1
     9    3    6 1
    10    4    5 1
    11    4   40 1
    12    4   41 1
    13    5   42 1
    14    5   43 1
    15    5   44 1
    16    6   11 ar
    17    6    7 ar
    18    7    8 ar
    19    7   45 1
    20    8    9 ar
    21    8   46 1
    22    9   10 ar
    23    9   13 1
    24   10   11 ar
    25   10   12 1
    26   11   47 1
    27   12   48 1
    28   13   14 2
    29   13   49 1
    30   14   15 1
    31   15   16 1
    32   15   50 1
    33   16   20 1
    34   16   17 2
    35   17   18 1
    36   18   19 2
    37   19   20 1
    38   19   22 1
    39   20   21 1
    40   21   51 1
    41   21   52 1
    42   22   23 1
    43   23   24 1
    44   23   53 1
    45   23   54 1
    46   24   25 2
    47   24   26 am
    48   26   27 1
    49   26   55 1
    50   27   32 ar
    51   27   28 ar
    52   28   29 ar
    53   28   56 1
    54   29   30 ar
    55   29   57 1
    56   30   31 ar
    57   30   34 1
    58   31   32 ar
    59   31   58 1
    60   32   33 1
@<TRIPOS>MOLECULE
ZINC43076247
   67    69     0     0     0
SMALL
USER_CHARGES

@<TRIPOS>ATOM
      1 C1         -1.5227    1.9839    0.6041 C.3       1 <0>        -0.1233
      2 C2         -1.2462    0.5095    0.4603 C.ar      1 <0>        -0.1052
      3 C3         -2.2707   -0.4083    0.5713 C.ar      1 <0>         0.1346
      4 N1         -2.0370   -1.7009    0.4462 N.ar      1 <0>        -0.4347
      5 C4         -0.8260   -2.1704    0.2122 C.ar      1 <0>         0.1451
      6 C5          0.2511   -1.3175    0.0881 C.ar      1 <0>        -0.1003
      7 C6          0.0455    0.0549    0.2079 C.ar      1 <0>         0.2270
      8 O1          1.0789    0.9267    0.0870 O.3       1 <0>        -0.3167
      9 C7          1.7886    1.2612    1.2813 C.3       1 <0>         0.0293
     10 C8          1.6304   -1.8627   -0.1791 C.3       1 <0>        -0.1247
     11 C9         -0.6171   -3.6570    0.0794 C.3       1 <0>         0.1622
     12 N2         -1.8736   -4.3541    0.3647 N.pl3     1 <0>        -0.6265
     13 C10        -2.2639   -4.6763    1.7453 C.3       1 <0>         0.1057
     14 C11        -2.8355   -6.0704    1.7868 C.2       1 <0>         0.5107
     15 O2         -2.7324   -6.7316    2.7986 O.2       1 <0>        -0.4823
     16 N3         -3.4604   -6.5897    0.7112 N.am      1 <0>        -0.5123
     17 C12        -3.5372   -5.8612   -0.4828 C.ar      1 <0>        -0.0004
     18 C13        -2.7339   -4.7249   -0.6599 C.ar      1 <0>         0.4488
     19 N4         -2.8108   -4.0399   -1.7901 N.ar      1 <0>        -0.5826
     20 C14        -3.6483   -4.4213   -2.7464 C.ar      1 <0>         0.6105
     21 N5         -4.4274   -5.4832   -2.6121 N.ar      1 <0>        -0.5510
     22 C15        -4.3949   -6.2296   -1.5044 C.ar      1 <0>         0.2689
     23 Cl1        -5.4213   -7.6200   -1.3395 Cl        1 <0>         0.0051
     24 N6         -3.7093   -3.6862   -3.9196 N.pl3     1 <0>        -0.8032
     25 C16        -4.0618   -7.9232    0.7912 C.3       1 <0>         0.0946
     26 H1         -5.1194   -7.8607    0.5351 H         1 <0>         0.1331
     27 C17        -3.9128   -8.4653    2.2142 C.3       1 <0>        -0.1408
     28 C18        -3.3649   -8.8473   -0.1739 C.2       1 <0>         0.5154
     29 O3         -2.4554   -8.4329   -0.8609 O.2       1 <0>        -0.5131
     30 N7         -3.7523  -10.1343   -0.2735 N.am      1 <0>        -0.7280
     31 C19        -3.0749  -11.0327   -1.2117 C.3       1 <0>         0.0960
     32 C20        -3.7030  -12.4253   -1.1281 C.3       1 <0>        -0.0244
     33 N8         -3.0237  -13.3261   -2.0689 N.4       1 <0>        -0.3828
     34 C21        -3.5446  -14.6897   -1.9040 C.3       1 <0>        -0.0476
     35 C22        -3.2673  -12.8718   -3.4445 C.3       1 <0>        -0.0562
     36 H2         -1.7636    2.4053   -0.3718 H         1 <0>         0.1038
     37 H3         -2.3639    2.1315    1.2814 H         1 <0>         0.0933
     38 H4         -0.6404    2.4814    1.0069 H         1 <0>         0.0931
     39 H5         -3.2763   -0.0644    0.7633 H         1 <0>         0.2118
     40 H6          1.1030    1.7169    1.9958 H         1 <0>         0.0655
     41 H7          2.2170    0.3574    1.7146 H         1 <0>         0.0645
     42 H8          2.5871    1.9644    1.0446 H         1 <0>         0.1237
     43 H9          1.8255   -1.8480   -1.2514 H         1 <0>         0.1063
     44 H10         2.3699   -1.2473    0.3332 H         1 <0>         0.0961
     45 H11         1.6934   -2.8872    0.1877 H         1 <0>         0.0890
     46 H12        -0.2951   -3.8894   -0.9357 H         1 <0>         0.1422
     47 H13         0.1468   -3.9811    0.7861 H         1 <0>         0.1415
     48 H14        -1.3889   -4.6221    2.3931 H         1 <0>         0.1425
     49 H15        -3.0153   -3.9644    2.0868 H         1 <0>         0.1047
     50 H16        -3.1449   -2.9055   -4.0327 H         1 <0>         0.4213
     51 H17        -4.3164   -3.9525   -4.6278 H         1 <0>         0.4265
     52 H18        -2.8559   -8.6050    2.4410 H         1 <0>         0.0848
     53 H19        -4.3453   -7.7563    2.9202 H         1 <0>         0.0931
     54 H20        -4.4312   -9.4207    2.2952 H         1 <0>         0.0602
     55 H21        -4.4797  -10.4658    0.2760 H         1 <0>         0.4103
     56 H22        -3.1810  -10.6465   -2.2255 H         1 <0>         0.0914
     57 H23        -2.0172  -11.0952   -0.9556 H         1 <0>         0.0914
     58 H24        -3.5969  -12.8115   -0.1144 H         1 <0>         0.1407
     59 H25        -4.7606  -12.3629   -1.3843 H         1 <0>         0.1386
     60 H26        -4.6161  -14.6960   -2.1043 H         1 <0>         0.1248
     61 H27        -3.0406  -15.3581   -2.6021 H         1 <0>         0.1300
     62 H28        -3.3638  -15.0268   -0.8834 H         1 <0>         0.1263
     63 H29        -4.3388  -12.8781   -3.6448 H         1 <0>         0.1258
     64 H30        -2.8808  -11.8601   -3.5668 H         1 <0>         0.1238
     65 H31        -2.7633  -13.5402   -4.1425 H         1 <0>         0.1307
     66 H32        -2.0319  -13.3203   -1.8835 H         1 <0>         0.4303
     67 H33        -2.7761   -2.3236    0.5289 H         1 <0>         0.4411
@<TRIPOS>BOND
     1    1    2 1
     2    1   36 1
     3    1   37 1
     4    1   38 1
     5    2    7 ar
     6    2    3 ar
     7    3    4 ar
     8    3   39 1
     9    4    5 ar
    10    4   67 1
    11    5    6 ar
    12    5   11 1
    13    6    7 ar
    14    6   10 1
    15    7    8 1
    16    8    9 1
    17    9   40 1
    18    9   41 1
    19    9   42 1
    20   10   43 1
    21   10   44 1
    22   10   45 1
    23   11   12 1
    24   11   46 1
    25   11   47 1
    26   12   18 1
    27   12   13 1
    28   13   14 1
    29   13   48 1
    30   13   49 1
    31   14   15 2
    32   14   16 am
    33   16   17 1
    34   16   25 1
    35   17   22 ar
    36   17   18 ar
    37   18   19 ar
    38   19   20 ar
    39   20   21 ar
    40   20   24 1
    41   21   22 ar
    42   22   23 1
    43   24   50 1
    44   24   51 1
    45   25   26 1
    46   25   27 1
    47   25   28 1
    48   27   52 1
    49   27   53 1
    50   27   54 1
    51   28   29 2
    52   28   30 am
    53   30   31 1
    54   30   55 1
    55   31   32 1
    56   31   56 1
    57   31   57 1
    58   32   33 1
    59   32   58 1
    60   32   59 1
    61   33   34 1
    62   33   35 1
    63   33   66 1
    64   34   60 1
    65   34   61 1
    66   34   62 1
    67   35   63 1
    68   35   64 1
    69   35   65 1
@<TRIPOS>MOLECULE
ZINC04273376
   67    70     0     0     0
SMALL
USER_CHARGES
3,5-dihydroxy-2-(4-hydroxyphenyl)-8-(3-methylbut-2-enyl)-7-[3,4,5-trihydroxy-6-(hydroxymethyl)tetrahydropyran-2-yl]oxy-chroman-4-one
@<TRIPOS>ATOM
      1 C1          9.4632    6.2426   -2.0115 C.3       1 <0>        -0.1209
      2 C2          8.5715    5.5017   -2.9744 C.2       1 <0>        -0.1221
      3 C3          7.5111    4.8719   -2.5329 C.2       1 <0>        -0.1626
      4 C4          7.1139    4.9890   -1.0839 C.3       1 <0>        -0.0351
      5 C5          5.6794    5.4413   -0.9912 C.ar      1 <0>        -0.1550
      6 C6          4.6576    4.5005   -0.9551 C.ar      1 <0>         0.2152
      7 C7          3.3293    4.8994   -0.8749 C.ar      1 <0>        -0.2547
      8 C8          3.0117    6.2451   -0.8214 C.ar      1 <0>         0.2408
      9 C9          4.0394    7.2000   -0.8614 C.ar      1 <0>        -0.3083
     10 C10         5.3841    6.7919   -0.9418 C.ar      1 <0>         0.2394
     11 O1          6.3843    7.7038   -0.9648 O.3       1 <0>        -0.2796
     12 C11         6.0890    9.0339   -1.3902 C.3       1 <0>         0.1498
     13 H1          5.8371    9.0291   -2.4507 H         1 <0>         0.1015
     14 C12         4.8990    9.5736   -0.5833 C.3       1 <0>         0.0561
     15 H2          4.6798   10.4993   -0.8914 H         1 <0>         0.0891
     16 C13         3.7310    8.6338   -0.8230 C.2       1 <0>         0.3749
     17 O2          2.6000    9.0474   -0.9746 O.2       1 <0>        -0.4252
     18 O3          5.2257    9.5989    0.8076 O.3       1 <0>        -0.5276
     19 C14         7.2911    9.9138   -1.1629 C.ar      1 <0>        -0.0983
     20 C15         8.1034    9.7022   -0.0642 C.ar      1 <0>        -0.0506
     21 C16         9.2092   10.5038    0.1434 C.ar      1 <0>        -0.1491
     22 C17         9.4982   11.5288   -0.7457 C.ar      1 <0>         0.1174
     23 C18         8.6784   11.7427   -1.8443 C.ar      1 <0>        -0.1474
     24 C19         7.5767   10.9350   -2.0502 C.ar      1 <0>        -0.0871
     25 O4         10.5823   12.3222   -0.5407 O.3       1 <0>        -0.4998
     26 O5          1.7167    6.6384   -0.7362 O.3       1 <0>        -0.4767
     27 O6          4.9599    3.1788   -1.0044 O.3       1 <0>        -0.2814
     28 C20         3.8654    2.2610   -0.9636 C.3       1 <0>         0.2228
     29 H3          3.1615    2.4991   -1.7611 H         1 <0>         0.0807
     30 C21         4.3877    0.8345   -1.1528 C.3       1 <0>         0.0618
     31 H4          5.1228    0.6102   -0.3799 H         1 <0>         0.0894
     32 C22         3.2170   -0.1477   -1.0479 C.3       1 <0>         0.0862
     33 H5          2.5064    0.0448   -1.8517 H         1 <0>         0.0793
     34 C23         2.5243    0.0432    0.3049 C.3       1 <0>         0.0896
     35 H6          3.2201   -0.1978    1.1086 H         1 <0>         0.0820
     36 C24         2.0740    1.5003    0.4378 C.3       1 <0>         0.1089
     37 H7          1.3465    1.7284   -0.3412 H         1 <0>         0.0839
     38 O7          3.2058    2.3617    0.3001 O.3       1 <0>        -0.3690
     39 C25         1.4346    1.7135    1.8113 C.3       1 <0>         0.0899
     40 O8          0.9102    3.0404    1.8918 O.3       1 <0>        -0.5636
     41 O9          1.3864   -0.8175    0.3844 O.3       1 <0>        -0.5488
     42 O10         3.7056   -1.4867   -1.1501 O.3       1 <0>        -0.5527
     43 O11         4.9968    0.7157   -2.4400 O.3       1 <0>        -0.5525
     44 C26         8.8998    5.4854   -4.4451 C.3       1 <0>        -0.1173
     45 H8          9.7908    5.5639   -1.2240 H         1 <0>         0.0642
     46 H9         10.3326    6.6276   -2.5443 H         1 <0>         0.0573
     47 H10         8.9110    7.0721   -1.5697 H         1 <0>         0.0738
     48 H11         6.9214    4.2687   -3.2074 H         1 <0>         0.1053
     49 H12         7.7570    5.7164   -0.5885 H         1 <0>         0.0881
     50 H13         7.2212    4.0190   -0.5983 H         1 <0>         0.0819
     51 H14         2.5441    4.1583   -0.8499 H         1 <0>         0.1473
     52 H15         4.5028    9.8979    1.3761 H         1 <0>         0.3889
     53 H16         7.8756    8.9069    0.6301 H         1 <0>         0.1356
     54 H17         9.8457   10.3355    0.9995 H         1 <0>         0.1315
     55 H18         8.9014   12.5397   -2.5381 H         1 <0>         0.1325
     56 H19         6.9382   11.1011   -2.9053 H         1 <0>         0.1287
     57 H20        10.4004   13.1056   -0.0037 H         1 <0>         0.3935
     58 H21         1.2889    6.7717   -1.5931 H         1 <0>         0.4010
     59 H22         0.6274    0.9947    1.9519 H         1 <0>         0.0788
     60 H23         2.1863    1.5722    2.5879 H         1 <0>         0.0574
     61 H24         0.4890    3.2462    2.7376 H         1 <0>         0.3856
     62 H25         1.5983   -1.7579    0.3076 H         1 <0>         0.3959
     63 H26         4.1568   -1.6782   -1.9837 H         1 <0>         0.3963
     64 H27         5.7444    1.3134   -2.5781 H         1 <0>         0.3958
     65 H28         8.4178    6.3318   -4.9343 H         1 <0>         0.0655
     66 H29         9.9794    5.5559   -4.5772 H         1 <0>         0.0614
     67 H30         8.5395    4.5566   -4.8875 H         1 <0>         0.0605
@<TRIPOS>BOND
     1    1    2 1
     2    1   45 1
     3    1   46 1
     4    1   47 1
     5    2    3 2
     6    2   44 1
     7    3    4 1
     8    3   48 1
     9    4    5 1
    10    4   49 1
    11    4   50 1
    12    5   10 ar
    13    5    6 ar
    14    6    7 ar
    15    6   27 1
    16    7    8 ar
    17    7   51 1
    18    8    9 ar
    19    8   26 1
    20    9   16 1
    21    9   10 ar
    22   10   11 1
    23   11   12 1
    24   12   13 1
    25   12   14 1
    26   12   19 1
    27   14   15 1
    28   14   16 1
    29   14   18 1
    30   16   17 2
    31   18   52 1
    32   19   24 ar
    33   19   20 ar
    34   20   21 ar
    35   20   53 1
    36   21   22 ar
    37   21   54 1
    38   22   23 ar
    39   22   25 1
    40   23   24 ar
    41   23   55 1
    42   24   56 1
    43   25   57 1
    44   26   58 1
    45   27   28 1
    46   28   29 1
    47   28   38 1
    48   28   30 1
    49   30   31 1
    50   30   32 1
    51   30   43 1
    52   32   33 1
    53   32   34 1
    54   32   42 1
    55   34   35 1
    56   34   36 1
    57   34   41 1
    58   36   37 1
    59   36   38 1
    60   36   39 1
    61   39   40 1
    62   39   59 1
    63   39   60 1
    64   40   61 1
    65   41   62 1
    66   42   63 1
    67   43   64 1
    68   44   65 1
    69   44   66 1
    70   44   67 1
@<TRIPOS>MOLECULE
ZINC15222519
   58    62     0     0     0
SMALL
USER_CHARGES
4-[[4-amino-6-[(E)-2-(2-hydroxy-1-naphthyl)vinyl]-5-oxo-1,2,4-triazin-3-yl]amino]-N-[(5R)-2,5-dihydroisoxazol-5-yl]benzenesulfonamide
@<TRIPOS>ATOM
      1 C1          0.0181    1.1927   -0.6580 C.ar      1 <0>        -0.1182
      2 C2         -1.1968    1.8737   -0.6641 C.ar      1 <0>        -0.1088
      3 C3         -1.2456    3.2202   -0.4561 C.ar      1 <0>        -0.1058
      4 C4         -0.0585    3.9313   -0.2458 C.ar      1 <0>        -0.0246
      5 C5          1.1793    3.2429   -0.2442 C.ar      1 <0>        -0.0601
      6 C6          1.1915    1.8535   -0.4557 C.ar      1 <0>        -0.1016
      7 C7          2.3704    3.9588   -0.0325 C.ar      1 <0>        -0.0842
      8 C8          2.3480    5.3034    0.1708 C.ar      1 <0>        -0.1384
      9 C9          1.1565    6.0249    0.1779 C.ar      1 <0>         0.1217
     10 C10        -0.0636    5.3769   -0.0260 C.ar      1 <0>        -0.0791
     11 C11        -1.3229    6.1300   -0.0199 C.2       1 <0>        -0.0663
     12 C12        -1.5978    6.9766    0.9940 C.2       1 <0>        -0.0688
     13 C13        -2.8571    7.7298    1.0000 C.2       1 <0>         0.0203
     14 C14        -3.1735    8.6569    2.0968 C.2       1 <0>         0.5073
     15 O1         -2.4031    8.8235    3.0258 O.2       1 <0>        -0.4924
     16 N1         -4.3537    9.3181    2.0353 N.am      1 <0>        -0.3783
     17 C15        -5.1744    9.0899    0.9712 C.2       1 <0>         0.5763
     18 N2         -4.8394    8.2461    0.0137 N.2       1 <0>        -0.3551
     19 N3         -3.7333    7.5939    0.0137 N.2       1 <0>        -0.1544
     20 N4         -6.3723    9.7510    0.8940 N.pl3     1 <0>        -0.6290
     21 C16        -7.2769    9.4417   -0.1261 C.ar      1 <0>         0.2086
     22 C17        -8.0894   10.4337   -0.6603 C.ar      1 <0>        -0.1582
     23 C18        -8.9789   10.1257   -1.6709 C.ar      1 <0>         0.0054
     24 C19        -9.0680    8.8294   -2.1443 C.ar      1 <0>        -0.6852
     25 C20        -8.2643    7.8384   -1.6111 C.ar      1 <0>         0.0080
     26 C21        -7.3693    8.1406   -0.6037 C.ar      1 <0>        -0.1271
     27 S1        -10.2085    8.4395   -3.4295 S.o2      1 <0>         2.6914
     28 O2        -10.4561    9.6488   -4.1335 O.2       1 <0>        -0.9537
     29 O3         -9.7139    7.2720   -4.0711 O.2       1 <0>        -0.9529
     30 N5        -11.6353    8.0130   -2.7052 N.pl3     1 <0>        -1.1013
     31 C22       -12.3887    9.0030   -1.9316 C.3       1 <0>         0.3241
     32 H1        -12.1910   10.0066   -2.3083 H         1 <0>         0.1299
     33 C23       -13.8683    8.7016   -1.9939 C.2       1 <0>        -0.3278
     34 C24       -14.2826    8.4737   -0.7652 C.2       1 <0>         0.1313
     35 N6        -13.2435    8.5861    0.1406 N.pl3     1 <0>        -0.6080
     36 O4        -12.0455    8.9144   -0.5407 O.3       1 <0>        -0.1626
     37 N7         -4.7142   10.1947    3.0189 N.3       1 <0>        -0.6040
     38 O5          1.1815    7.3669    0.3840 O.3       1 <0>        -0.4904
     39 H2          0.0302    0.1251   -0.8206 H         1 <0>         0.1247
     40 H3         -2.1130    1.3269   -0.8310 H         1 <0>         0.1258
     41 H4         -2.1944    3.7362   -0.4595 H         1 <0>         0.1303
     42 H5          2.1264    1.3129   -0.4580 H         1 <0>         0.1290
     43 H6          3.3148    3.4347   -0.0316 H         1 <0>         0.1315
     44 H7          3.2795    5.8261    0.3308 H         1 <0>         0.1310
     45 H8         -2.0298    6.0066   -0.8271 H         1 <0>         0.1382
     46 H9         -0.8909    7.1000    1.8011 H         1 <0>         0.1430
     47 H10        -6.5925   10.4336    1.5471 H         1 <0>         0.4287
     48 H11        -8.0229   11.4455   -0.2884 H         1 <0>         0.1372
     49 H12        -9.6082   10.8972   -2.0892 H         1 <0>         0.1452
     50 H13        -8.3368    6.8269   -1.9826 H         1 <0>         0.1464
     51 H14        -6.7421    7.3661   -0.1874 H         1 <0>         0.1492
     52 H15       -11.9722    7.1076   -2.7931 H         1 <0>         0.4213
     53 H16       -14.4765    8.6772   -2.8860 H         1 <0>         0.1626
     54 H17       -15.3006    8.2302   -0.4994 H         1 <0>         0.1799
     55 H18       -13.3231    8.4594    1.0990 H         1 <0>         0.4460
     56 H19        -4.0025   10.2508    3.7319 H         1 <0>         0.3939
     57 H20        -4.9145   11.1062    2.6353 H         1 <0>         0.3578
     58 H21         1.2636    7.8878   -0.4265 H         1 <0>         0.3904
@<TRIPOS>BOND
     1    1    6 ar
     2    1    2 ar
     3    1   39 1
     4    2    3 ar
     5    2   40 1
     6    3    4 ar
     7    3   41 1
     8    4   10 ar
     9    4    5 ar
    10    5    6 ar
    11    5    7 ar
    12    6   42 1
    13    7    8 ar
    14    7   43 1
    15    8    9 ar
    16    8   44 1
    17    9   10 ar
    18    9   38 1
    19   10   11 1
    20   11   12 2
    21   11   45 1
    22   12   13 1
    23   12   46 1
    24   13   19 2
    25   13   14 1
    26   14   15 2
    27   14   16 am
    28   16   17 1
    29   16   37 1
    30   17   18 2
    31   17   20 1
    32   18   19 1
    33   20   21 1
    34   20   47 1
    35   21   26 ar
    36   21   22 ar
    37   22   23 ar
    38   22   48 1
    39   23   24 ar
    40   23   49 1
    41   24   25 ar
    42   24   27 1
    43   25   26 ar
    44   25   50 1
    45   26   51 1
    46   27   28 2
    47   27   29 2
    48   27   30 1
    49   30   31 1
    50   30   52 1
    51   31   32 1
    52   31   36 1
    53   31   33 1
    54   33   34 2
    55   33   53 1
    56   34   35 1
    57   34   54 1
    58   35   36 1
    59   35   55 1
    60   37   56 1
    61   37   57 1
    62   38   58 1
@<TRIPOS>MOLECULE
ZINC35454769
   62    64     0     0     0
SMALL
USER_CHARGES

@<TRIPOS>ATOM
      1 C1         -0.0187    1.5258    0.0104 C.3       1 <0>        -0.1500
      2 C2          0.0021   -0.0041    0.0020 C.3       1 <0>         0.0592
      3 H1         -1.0205   -0.3815    0.0098 H         1 <0>         0.0798
      4 C3          0.7191   -0.4980   -1.2572 C.3       1 <0>         0.0919
      5 H2          1.7286   -0.0879   -1.2861 H         1 <0>         0.0769
      6 C4          0.7888   -2.0279   -1.2287 C.3       1 <0>         0.1276
      7 H3         -0.2203   -2.4394   -1.2498 H         1 <0>         0.0856
      8 C5          1.4965   -2.4720    0.0552 C.3       1 <0>         0.0607
      9 H4          1.5015   -3.5606    0.1105 H         1 <0>         0.0817
     10 C6          0.7494   -1.9018    1.2638 C.3       1 <0>         0.2151
     11 H5          1.2730   -2.1790    2.1787 H         1 <0>         0.1073
     12 O1          0.6937   -0.4777    1.1594 O.3       1 <0>        -0.3748
     13 O2         -0.5782   -2.4296    1.2958 O.3       1 <0>        -0.3823
     14 C7         -1.3277   -2.0478    2.4510 C.3       1 <0>         0.0778
     15 C8         -2.7253   -2.6663    2.3795 C.3       1 <0>         0.1050
     16 H6         -2.6391   -3.7457    2.2547 H         1 <0>         0.0959
     17 C9         -3.4854   -2.3610    3.6728 C.3       1 <0>         0.0923
     18 H7         -3.5366   -1.2821    3.8192 H         1 <0>         0.0800
     19 C10        -4.9033   -2.9314    3.5693 C.3       1 <0>         0.0844
     20 H8         -5.4680   -2.6692    4.4639 H         1 <0>         0.0720
     21 C11        -5.5918   -2.3379    2.3364 C.3       1 <0>         0.0587
     22 H9         -5.6855   -1.2585    2.4558 H         1 <0>         0.0934
     23 C12        -4.7502   -2.6441    1.0947 C.3       1 <0>         0.2187
     24 H10        -5.2134   -2.1874    0.2200 H         1 <0>         0.1118
     25 O3         -3.4350   -2.1133    1.2693 O.3       1 <0>        -0.3636
     26 O4         -4.6724   -4.0588    0.9087 O.3       1 <0>        -0.2968
     27 C13        -4.0454   -4.5002   -0.2142 C.ar      1 <0>         0.1306
     28 C14        -3.5118   -3.5892   -1.1137 C.ar      1 <0>        -0.1844
     29 C15        -2.8743   -4.0355   -2.2561 C.ar      1 <0>        -0.1342
     30 C16        -2.7666   -5.3941   -2.5047 C.ar      1 <0>         0.0666
     31 C17        -3.3006   -6.3099   -1.6036 C.ar      1 <0>         0.1330
     32 C18        -3.9346   -5.8610   -0.4565 C.ar      1 <0>        -0.2002
     33 O5         -3.1961   -7.6439   -1.8462 O.3       1 <0>        -0.3022
     34 C19        -3.7673   -8.5261   -0.8779 C.3       1 <0>         0.0249
     35 O6         -2.1392   -5.8327   -3.6298 O.3       1 <0>        -0.3079
     36 C20        -1.6153   -4.8367   -4.5105 C.3       1 <0>         0.0269
     37 O7         -6.8900   -2.9166    2.1895 O.3       1 <0>        -0.5470
     38 O8         -4.8386   -4.3535    3.4446 O.3       1 <0>        -0.5314
     39 O9         -2.8075   -2.9613    4.7783 O.3       1 <0>        -0.5423
     40 O10         2.8409   -1.9878    0.0514 O.3       1 <0>        -0.5337
     41 O11         1.5192   -2.4944   -2.3649 O.3       1 <0>        -0.5436
     42 O12        -0.0023   -0.0731   -2.4152 O.3       1 <0>        -0.5504
     43 H11         1.0039    1.9031    0.0027 H         1 <0>         0.0677
     44 H12        -0.5459    1.8868   -0.8726 H         1 <0>         0.0746
     45 H13        -0.5289    1.8773    0.9072 H         1 <0>         0.0704
     46 H14        -0.8190   -2.4020    3.3476 H         1 <0>         0.0791
     47 H15        -1.4125   -0.9617    2.4865 H         1 <0>         0.0640
     48 H16        -3.5949   -2.5297   -0.9215 H         1 <0>         0.1348
     49 H17        -2.4602   -3.3245   -2.9557 H         1 <0>         0.1376
     50 H18        -4.3459   -6.5704    0.2464 H         1 <0>         0.1419
     51 H19        -3.2877   -8.3655    0.0876 H         1 <0>         0.0564
     52 H20        -4.8354   -8.3270   -0.7906 H         1 <0>         0.0560
     53 H21        -3.6146   -9.5585   -1.1923 H         1 <0>         0.1015
     54 H22        -2.4260   -4.1963   -4.8580 H         1 <0>         0.0528
     55 H23        -0.8781   -4.2341   -3.9801 H         1 <0>         0.0555
     56 H24        -1.1424   -5.3202   -5.3653 H         1 <0>         0.0999
     57 H25        -7.3841   -2.5859    1.4268 H         1 <0>         0.3889
     58 H26        -5.7026   -4.7819    3.3743 H         1 <0>         0.3857
     59 H27        -3.2349   -2.8081    5.6321 H         1 <0>         0.3858
     60 H28         3.3493   -2.2323    0.8368 H         1 <0>         0.3805
     61 H29         1.6026   -3.4567   -2.4108 H         1 <0>         0.3769
     62 H30        -0.0887    0.8867   -2.4946 H         1 <0>         0.3771
@<TRIPOS>BOND
     1    1    2 1
     2    1   43 1
     3    1   44 1
     4    1   45 1
     5    2    3 1
     6    2   12 1
     7    2    4 1
     8    4    5 1
     9    4    6 1
    10    4   42 1
    11    6    7 1
    12    6    8 1
    13    6   41 1
    14    8    9 1
    15    8   10 1
    16    8   40 1
    17   10   11 1
    18   10   12 1
    19   10   13 1
    20   13   14 1
    21   14   15 1
    22   14   46 1
    23   14   47 1
    24   15   16 1
    25   15   25 1
    26   15   17 1
    27   17   18 1
    28   17   19 1
    29   17   39 1
    30   19   20 1
    31   19   21 1
    32   19   38 1
    33   21   22 1
    34   21   23 1
    35   21   37 1
    36   23   24 1
    37   23   25 1
    38   23   26 1
    39   26   27 1
    40   27   32 ar
    41   27   28 ar
    42   28   29 ar
    43   28   48 1
    44   29   30 ar
    45   29   49 1
    46   30   31 ar
    47   30   35 1
    48   31   32 ar
    49   31   33 1
    50   32   50 1
    51   33   34 1
    52   34   51 1
    53   34   52 1
    54   34   53 1
    55   35   36 1
    56   36   54 1
    57   36   55 1
    58   36   56 1
    59   37   57 1
    60   38   58 1
    61   39   59 1
    62   40   60 1
    63   41   61 1
    64   42   62 1
@<TRIPOS>MOLECULE
ZINC35271618
   88    91     0     0     0
SMALL
USER_CHARGES

@<TRIPOS>ATOM
      1 C1          0.3750    1.6757    0.5152 C.3       1 <0>        -0.1503
      2 C2          0.1681    0.2801    1.1139 C.3       1 <0>        -0.0241
      3 C3         -1.2112    0.2320    1.7779 C.3       1 <0>        -0.1070
      4 C4         -0.9683    1.0370    3.0871 C.3       1 <0>        -0.1413
      5 C5          0.5263    0.8337    3.4445 C.3       1 <0>        -0.0633
      6 H1          0.5929    0.2522    4.3768 H         1 <0>         0.0813
      7 C6          1.1093    0.0046    2.3058 C.3       1 <0>        -0.0308
      8 C7          2.5189    0.2928    1.8418 C.3       1 <0>         0.1236
      9 H2          2.6563    1.3184    1.5132 H         1 <0>         0.0615
     10 C8          2.8490   -0.6689    0.6983 C.3       1 <0>        -0.1101
     11 C9          1.6773   -1.1354   -0.1268 C.2       1 <0>        -0.1029
     12 C10         0.4416   -0.7387    0.0455 C.2       1 <0>        -0.0916
     13 C11        -0.7421   -1.2119   -0.7571 C.3       1 <0>        -0.0794
     14 C12        -0.4033   -2.3971   -1.6628 C.3       1 <0>        -0.1156
     15 C13         0.9570   -2.0960   -2.2947 C.3       1 <0>        -0.0580
     16 H3          0.9082   -1.0295   -2.6278 H         1 <0>         0.0722
     17 C14         2.0127   -2.1523   -1.2114 C.3       1 <0>        -0.0042
     18 C15         3.3917   -1.8477   -1.7915 C.3       1 <0>        -0.1306
     19 C16         3.7001   -2.8384   -2.9152 C.3       1 <0>         0.0745
     20 H4          3.7156   -3.8571   -2.5344 H         1 <0>         0.0638
     21 C17         2.6713   -2.7106   -4.0314 C.3       1 <0>         0.1285
     22 H5          2.8863   -3.4632   -4.7993 H         1 <0>         0.0535
     23 C18         1.2404   -2.9172   -3.5319 C.3       1 <0>        -0.0371
     24 C19         0.3010   -2.4288   -4.6614 C.3       1 <0>        -0.1391
     25 C20         0.9651   -4.4063   -3.3303 C.3       1 <0>        -0.1512
     26 O1          2.7781   -1.4150   -4.6318 O.3       1 <0>        -0.5570
     27 O2          4.9997   -2.5415   -3.4461 O.3       1 <0>        -0.5746
     28 C21         2.0632   -3.5180   -0.5249 C.3       1 <0>        -0.1506
     29 O3          3.4350    0.0394    2.9232 O.3       1 <0>        -0.5583
     30 C22         1.0147   -1.4789    2.7277 C.3       1 <0>        -0.1386
     31 C23         1.2364    2.1674    3.6340 C.3       1 <0>        -0.0728
     32 H6          2.2897    2.0582    3.3755 H         1 <0>         0.0825
     33 C24         0.5952    3.2198    2.7272 C.3       1 <0>        -0.1692
     34 C25         1.1695    4.5982    3.0605 C.3       1 <0>        -0.1519
     35 C26         0.5284    5.6507    2.1538 C.3       1 <0>         0.1232
     36 H7         -0.5564    5.5978    2.2464 H         1 <0>         0.1032
     37 C27         1.0085    7.0427    2.5694 C.3       1 <0>         0.0953
     38 C28         2.5311    7.1169    2.4395 C.3       1 <0>        -0.1880
     39 C29         0.3673    8.0951    1.6627 C.3       1 <0>        -0.1763
     40 O4          0.6335    7.2905    3.9259 O.3       1 <0>        -0.5567
     41 O5          0.9033    5.4029    0.7973 O.3       1 <0>        -0.5494
     42 C30         1.1125    2.6082    5.0938 C.3       1 <0>         0.0786
     43 O6          1.6792    1.6084    5.9431 O.3       1 <0>        -0.5670
     44 H8          1.3564    2.0527    0.8029 H         1 <0>         0.0706
     45 H9          0.3122    1.6178   -0.5714 H         1 <0>         0.0547
     46 H10        -0.3966    2.3491    0.8883 H         1 <0>         0.0728
     47 H11        -1.9527    0.7334    1.1529 H         1 <0>         0.0656
     48 H12        -1.5182   -0.7875    1.9924 H         1 <0>         0.0682
     49 H13        -1.1807    2.0931    2.9289 H         1 <0>         0.0850
     50 H14        -1.5995    0.6460    3.8860 H         1 <0>         0.0578
     51 H15         3.5549   -0.1593    0.0323 H         1 <0>         0.0640
     52 H16         3.3637   -1.5348    1.1138 H         1 <0>         0.0786
     53 H17        -1.5349   -1.5173   -0.0721 H         1 <0>         0.0707
     54 H18        -1.1076   -0.3916   -1.3741 H         1 <0>         0.0702
     55 H19        -0.4036   -3.3148   -1.0906 H         1 <0>         0.0700
     56 H20        -1.1730   -2.4644   -2.4408 H         1 <0>         0.0658
     57 H21         3.4067   -0.8305   -2.1829 H         1 <0>         0.0775
     58 H22         4.1460   -1.9426   -1.0083 H         1 <0>         0.0643
     59 H23         0.4898   -1.3739   -4.8604 H         1 <0>         0.0671
     60 H24         0.4880   -3.0082   -5.5655 H         1 <0>         0.0518
     61 H25        -0.7363   -2.5604   -4.3536 H         1 <0>         0.0541
     62 H26        -0.0750   -4.5470   -3.0362 H         1 <0>         0.0661
     63 H27         1.1547   -4.9402   -4.2615 H         1 <0>         0.0567
     64 H28         1.6192   -4.7942   -2.5494 H         1 <0>         0.0619
     65 H29         3.6447   -1.2315   -5.0196 H         1 <0>         0.3809
     66 H30         5.7136   -2.6044   -2.7968 H         1 <0>         0.3816
     67 H31         1.0583   -3.8075   -0.2175 H         1 <0>         0.0627
     68 H32         2.4585   -4.2593   -1.2194 H         1 <0>         0.0592
     69 H33         2.7088   -3.4605    0.3515 H         1 <0>         0.0551
     70 H34         4.3513    0.2776    2.7264 H         1 <0>         0.3693
     71 H35         1.3038   -2.1139    1.8903 H         1 <0>         0.0608
     72 H36         1.6832   -1.6606    3.5693 H         1 <0>         0.0591
     73 H37        -0.0096   -1.7085    3.0212 H         1 <0>         0.0490
     74 H38         0.8077    2.9799    1.6854 H         1 <0>         0.1182
     75 H39        -0.4832    3.2275    2.8856 H         1 <0>         0.0759
     76 H40         0.9570    4.8381    4.1023 H         1 <0>         0.0797
     77 H41         2.2479    4.5905    2.9021 H         1 <0>         0.0620
     78 H42         2.8171    6.9279    1.4048 H         1 <0>         0.0667
     79 H43         2.8731    8.1086    2.7356 H         1 <0>         0.0625
     80 H44         2.9879    6.3671    3.0854 H         1 <0>         0.0687
     81 H45        -0.7175    8.0423    1.7553 H         1 <0>         0.0634
     82 H46         0.7093    9.0868    1.9588 H         1 <0>         0.0565
     83 H47         0.6533    7.9061    0.6280 H         1 <0>         0.0725
     84 H48         0.9063    8.1570    4.2574 H         1 <0>         0.3788
     85 H49         1.8570    5.4343    0.6408 H         1 <0>         0.3711
     86 H50         1.6441    3.5492    5.2356 H         1 <0>         0.0442
     87 H51         0.0604    2.7440    5.3443 H         1 <0>         0.0397
     88 H52         1.5678    1.7851    6.8872 H         1 <0>         0.3740
@<TRIPOS>BOND
     1    1    2 1
     2    1   44 1
     3    1   45 1
     4    1   46 1
     5    2    7 1
     6    2   12 1
     7    2    3 1
     8    3    4 1
     9    3   47 1
    10    3   48 1
    11    4    5 1
    12    4   49 1
    13    4   50 1
    14    5    6 1
    15    5    7 1
    16    5   31 1
    17    7    8 1
    18    7   30 1
    19    8    9 1
    20    8   10 1
    21    8   29 1
    22   10   11 1
    23   10   51 1
    24   10   52 1
    25   11   17 1
    26   11   12 2
    27   12   13 1
    28   13   14 1
    29   13   53 1
    30   13   54 1
    31   14   15 1
    32   14   55 1
    33   14   56 1
    34   15   16 1
    35   15   23 1
    36   15   17 1
    37   17   18 1
    38   17   28 1
    39   18   19 1
    40   18   57 1
    41   18   58 1
    42   19   20 1
    43   19   21 1
    44   19   27 1
    45   21   22 1
    46   21   23 1
    47   21   26 1
    48   23   24 1
    49   23   25 1
    50   24   59 1
    51   24   60 1
    52   24   61 1
    53   25   62 1
    54   25   63 1
    55   25   64 1
    56   26   65 1
    57   27   66 1
    58   28   67 1
    59   28   68 1
    60   28   69 1
    61   29   70 1
    62   30   71 1
    63   30   72 1
    64   30   73 1
    65   31   32 1
    66   31   33 1
    67   31   42 1
    68   33   34 1
    69   33   74 1
    70   33   75 1
    71   34   35 1
    72   34   76 1
    73   34   77 1
    74   35   36 1
    75   35   37 1
    76   35   41 1
    77   37   38 1
    78   37   39 1
    79   37   40 1
    80   38   78 1
    81   38   79 1
    82   38   80 1
    83   39   81 1
    84   39   82 1
    85   39   83 1
    86   40   84 1
    87   41   85 1
    88   42   43 1
    89   42   86 1
    90   42   87 1
    91   43   88 1
@<TRIPOS>MOLECULE
ZINC43761001
   52    54     0     0     0
SMALL
USER_CHARGES

@<TRIPOS>ATOM
      1 C1          0.3664    1.0615    0.3671 C.ar      1 <0>        -0.0904
      2 C2          1.4562    1.6460    0.9756 C.ar      1 <0>        -0.1162
      3 C3          2.0714    1.0227    2.0493 C.ar      1 <0>        -0.0259
      4 C4          1.5965   -0.1910    2.5195 C.ar      1 <0>        -0.1127
      5 C5          0.5075   -0.7873    1.9210 C.ar      1 <0>        -0.0491
      6 C6         -0.1187   -0.1639    0.8364 C.ar      1 <0>        -0.0624
      7 C7         -1.2818   -0.7939    0.1926 C.2       1 <0>        -0.0319
      8 C8         -1.2347   -2.0954   -0.1607 C.2       1 <0>        -0.2293
      9 C9          0.0362   -2.8207   -0.1155 C.2       1 <0>         0.4183
     10 O1          1.0720   -2.2210    0.1120 O.2       1 <0>        -0.4273
     11 C10         0.0626   -4.2738   -0.3448 C.ar      1 <0>        -0.2294
     12 C11        -1.1387   -4.9941   -0.4494 C.ar      1 <0>         0.2037
     13 C12        -1.1050   -6.3592   -0.6654 C.ar      1 <0>        -0.2166
     14 C13         0.1125   -7.0186   -0.7786 C.ar      1 <0>         0.1967
     15 C14         1.3049   -6.3139   -0.6764 C.ar      1 <0>        -0.2362
     16 C15         1.2889   -4.9472   -0.4662 C.ar      1 <0>         0.2131
     17 O2          2.4547   -4.2597   -0.3719 O.3       1 <0>        -0.2609
     18 C16         3.6633   -5.0105   -0.5052 C.3       1 <0>         0.2197
     19 H1          3.6460   -5.5632   -1.4446 H         1 <0>         0.0776
     20 C17         4.8606   -4.0566   -0.4960 C.3       1 <0>         0.0641
     21 H2          4.8554   -3.4745    0.4255 H         1 <0>         0.0889
     22 C18         6.1543   -4.8727   -0.5787 C.3       1 <0>         0.0867
     23 H3          6.1826   -5.4166   -1.5228 H         1 <0>         0.0781
     24 C19         6.1936   -5.8663    0.5865 C.3       1 <0>         0.0895
     25 H4          6.2153   -5.3207    1.5299 H         1 <0>         0.0817
     26 C20         4.9447   -6.7503    0.5354 C.3       1 <0>         0.1092
     27 H5          4.9444   -7.3259   -0.3902 H         1 <0>         0.0832
     28 O3          3.7775   -5.9273    0.5850 O.3       1 <0>        -0.3701
     29 C21         4.9467   -7.7058    1.7304 C.3       1 <0>         0.0900
     30 O4          3.8441   -8.6082    1.6205 O.3       1 <0>        -0.5643
     31 O5          7.3621   -6.6818    0.4794 O.3       1 <0>        -0.5492
     32 O6          7.2791   -3.9950   -0.4988 O.3       1 <0>        -0.5529
     33 O7          4.7779   -3.1755   -1.6179 O.3       1 <0>        -0.5538
     34 O8          0.1368   -8.3590   -0.9897 O.3       1 <0>        -0.4888
     35 O9         -2.3287   -4.3521   -0.3383 O.3       1 <0>        -0.4795
     36 Cl1         3.4443    1.7659    2.8087 Cl        1 <0>        -0.0735
     37 H6         -0.1147    1.5504   -0.4671 H         1 <0>         0.1314
     38 H7          1.8318    2.5920    0.6143 H         1 <0>         0.1325
     39 H8          2.0810   -0.6711    3.3569 H         1 <0>         0.1302
     40 H9          0.1386   -1.7335    2.2884 H         1 <0>         0.1218
     41 H10        -2.1734   -0.2147    0.0026 H         1 <0>         0.1392
     42 H11        -2.1346   -2.6021   -0.4766 H         1 <0>         0.1593
     43 H12        -2.0278   -6.9145   -0.7460 H         1 <0>         0.1455
     44 H13         2.2472   -6.8341   -0.7652 H         1 <0>         0.1471
     45 H14         5.8788   -8.2708    1.7423 H         1 <0>         0.0790
     46 H15         4.8571   -7.1333    2.6535 H         1 <0>         0.0575
     47 H16         3.7829   -9.2445    2.3461 H         1 <0>         0.3855
     48 H17         8.1916   -6.1852    0.5005 H         1 <0>         0.3959
     49 H18         7.3135   -3.3345   -1.2043 H         1 <0>         0.3963
     50 H19         3.9794   -2.6302   -1.6318 H         1 <0>         0.3978
     51 H20         0.1371   -8.6102   -1.9235 H         1 <0>         0.3998
     52 H21        -2.6806   -4.0278   -1.1786 H         1 <0>         0.4011
@<TRIPOS>BOND
     1    1    6 ar
     2    1    2 ar
     3    1   37 1
     4    2    3 ar
     5    2   38 1
     6    3    4 ar
     7    3   36 1
     8    4    5 ar
     9    4   39 1
    10    5    6 ar
    11    5   40 1
    12    6    7 1
    13    7    8 2
    14    7   41 1
    15    8    9 1
    16    8   42 1
    17    9   10 2
    18    9   11 1
    19   11   16 ar
    20   11   12 ar
    21   12   13 ar
    22   12   35 1
    23   13   14 ar
    24   13   43 1
    25   14   15 ar
    26   14   34 1
    27   15   16 ar
    28   15   44 1
    29   16   17 1
    30   17   18 1
    31   18   19 1
    32   18   28 1
    33   18   20 1
    34   20   21 1
    35   20   22 1
    36   20   33 1
    37   22   23 1
    38   22   24 1
    39   22   32 1
    40   24   25 1
    41   24   26 1
    42   24   31 1
    43   26   27 1
    44   26   28 1
    45   26   29 1
    46   29   30 1
    47   29   45 1
    48   29   46 1
    49   30   47 1
    50   31   48 1
    51   32   49 1
    52   33   50 1
    53   34   51 1
    54   35   52 1
@<TRIPOS>MOLECULE
ZINC09915697
   53    55     0     0     0
SMALL
USER_CHARGES
2-[(6-chloro-1H-indol-3-yl)oxy]-6-(hydroxymethyl)-2,3,4,5,6-pentamethyl-tetrahydropyran-3,4,5-triol
@<TRIPOS>ATOM
      1 C1         -1.8873    3.4436   -2.8299 C.3       1 <0>        -0.1662
      2 C2         -3.3414    3.4217   -2.3431 C.3       1 <0>         0.1171
      3 C3         -3.9813    4.7880   -2.5380 C.3       1 <0>         0.1315
      4 C4         -3.8031    5.7529   -1.3784 C.3       1 <0>         0.1747
      5 C5         -3.8823    5.0916   -0.0105 C.3       1 <0>         0.1095
      6 C6         -3.0636    3.8049    0.0518 C.3       1 <0>         0.2587
      7 O1         -3.4165    2.9447   -1.0155 O.3       1 <0>        -0.3507
      8 C7         -3.3842    3.0934    1.3803 C.3       1 <0>        -0.1872
      9 O2         -1.6668    4.1013    0.0400 O.3       1 <0>        -0.2982
     10 C8         -0.8100    3.0425    0.0262 C.2       1 <0>         0.0411
     11 C9         -1.1470    1.7409    0.0164 C.2       1 <0>        -0.0097
     12 N1         -0.0111    0.9658    0.0074 N.pl3     1 <0>        -0.5829
     13 H1          0.0021   -0.0041    0.0020 H         1 <0>         0.4212
     14 C10         1.1045    1.7723    0.0010 C.ar      1 <0>         0.1256
     15 C11         0.6555    3.1059    0.0125 C.ar      1 <0>        -0.1034
     16 C12         1.5795    4.1522    0.0089 C.ar      1 <0>        -0.0434
     17 C13         2.9176    3.8762   -0.0058 C.ar      1 <0>        -0.1448
     18 C14         3.3668    2.5617   -0.0167 C.ar      1 <0>        -0.0049
     19 C15         2.4713    1.5133   -0.0134 C.ar      1 <0>        -0.1261
     20 Cl1         5.0718    2.2359   -0.0346 Cl        1 <0>        -0.0663
     21 C16        -3.3486    6.0681    1.0501 C.3       1 <0>        -0.1867
     22 O3         -5.2489    4.7931    0.3049 O.3       1 <0>        -0.5281
     23 C17        -2.4850    6.5240   -1.5195 C.3       1 <0>        -0.1767
     24 O4         -4.8696    6.7280   -1.4524 O.3       1 <0>        -0.5427
     25 C18        -5.4824    4.6000   -2.8172 C.3       1 <0>        -0.1749
     26 O5         -3.4009    5.3879   -3.7152 O.3       1 <0>        -0.5465
     27 C19        -4.1024    2.4190   -3.2428 C.3       1 <0>         0.0791
     28 O6         -3.5336    1.1168   -3.0917 O.3       1 <0>        -0.5589
     29 H2         -1.3252    4.1851   -2.2622 H         1 <0>         0.0711
     30 H3         -1.4407    2.4599   -2.6849 H         1 <0>         0.0712
     31 H4         -1.8624    3.7014   -3.8887 H         1 <0>         0.0644
     32 H5         -3.1301    3.7483    2.2137 H         1 <0>         0.0884
     33 H6         -4.4471    2.8543    1.4170 H         1 <0>         0.0827
     34 H7         -2.8025    2.1743    1.4499 H         1 <0>         0.0849
     35 H8         -2.1580    1.3611    0.0181 H         1 <0>         0.1819
     36 H9          1.2378    5.1766    0.0180 H         1 <0>         0.1327
     37 H10         3.6318    4.6864   -0.0085 H         1 <0>         0.1346
     38 H11         2.8297    0.4946   -0.0220 H         1 <0>         0.1334
     39 H12        -2.3001    6.2866    0.8479 H         1 <0>         0.0873
     40 H13        -3.9255    6.9923    1.0161 H         1 <0>         0.0705
     41 H14        -3.4419    5.6177    2.0383 H         1 <0>         0.0700
     42 H15        -5.3754    4.4125    1.1847 H         1 <0>         0.3769
     43 H16        -1.6475    5.8354   -1.4076 H         1 <0>         0.0799
     44 H17        -2.4415    6.9922   -2.5029 H         1 <0>         0.0845
     45 H18        -2.4292    7.2924   -0.7485 H         1 <0>         0.0634
     46 H19        -4.8180    7.4193   -0.7781 H         1 <0>         0.3730
     47 H20        -5.9280    5.5618   -3.0712 H         1 <0>         0.0794
     48 H21        -5.6134    3.9079   -3.6490 H         1 <0>         0.0561
     49 H22        -5.9695    4.1971   -1.9292 H         1 <0>         0.0791
     50 H23        -3.4682    4.8406   -4.5095 H         1 <0>         0.3735
     51 H24        -5.1522    2.3930   -2.9507 H         1 <0>         0.0639
     52 H25        -4.0226    2.7318   -4.2838 H         1 <0>         0.0574
     53 H26        -3.9623    0.4358   -3.6280 H         1 <0>         0.3795
@<TRIPOS>BOND
     1    1    2 1
     2    1   29 1
     3    1   30 1
     4    1   31 1
     5    2    7 1
     6    2    3 1
     7    2   27 1
     8    3    4 1
     9    3   25 1
    10    3   26 1
    11    4    5 1
    12    4   23 1
    13    4   24 1
    14    5    6 1
    15    5   21 1
    16    5   22 1
    17    6    7 1
    18    6    8 1
    19    6    9 1
    20    8   32 1
    21    8   33 1
    22    8   34 1
    23    9   10 1
    24   10   15 1
    25   10   11 2
    26   11   12 1
    27   11   35 1
    28   12   13 1
    29   12   14 1
    30   14   19 ar
    31   14   15 ar
    32   15   16 ar
    33   16   17 ar
    34   16   36 1
    35   17   18 ar
    36   17   37 1
    37   18   19 ar
    38   18   20 1
    39   19   38 1
    40   21   39 1
    41   21   40 1
    42   21   41 1
    43   22   42 1
    44   23   43 1
    45   23   44 1
    46   23   45 1
    47   24   46 1
    48   25   47 1
    49   25   48 1
    50   25   49 1
    51   26   50 1
    52   27   28 1
    53   27   51 1
    54   27   52 1
    55   28   53 1
@<TRIPOS>MOLECULE
ZINC22064328
   37    38     0     0     0
SMALL
USER_CHARGES
1-[4-[[(E)-3-(5-chloro-2-thienyl)-3-oxo-prop-1-enyl]amino]phenyl]sulfonylguanidine
@<TRIPOS>ATOM
      1 C1         -2.3904   -0.3602    0.0057 C.ar      1 <0>        -0.1882
      2 C2         -3.5787   -1.0638    0.0143 C.ar      1 <0>        -0.0025
      3 C3         -4.7847   -0.3871    0.0232 C.ar      1 <0>        -0.7168
      4 C4         -4.8053    0.9957    0.0303 C.ar      1 <0>         0.0263
      5 C5         -3.6207    1.7055    0.0285 C.ar      1 <0>        -0.1793
      6 C6         -2.4074    1.0289    0.0191 C.ar      1 <0>         0.2179
      7 N1         -1.2069    1.7439    0.0173 N.pl3     1 <0>        -0.6572
      8 C7         -0.0126    1.0758    0.0080 C.2       1 <0>         0.2188
      9 C8          1.1469    1.7664    0.0006 C.2       1 <0>        -0.3558
     10 C9          2.3831    1.0750   -0.0149 C.2       1 <0>         0.4856
     11 O1          2.3996   -0.1446   -0.0216 O.2       1 <0>        -0.4772
     12 C10         3.6437    1.8259   -0.0229 C.2       1 <0>        -0.2385
     13 C11         4.9450    1.3481   -0.0322 C.2       1 <0>        -0.0759
     14 C12         5.9531    2.2796   -0.0415 C.2       1 <0>        -0.1606
     15 C13         5.6343    3.6022   -0.0311 C.2       1 <0>        -0.1383
     16 S1          3.9008    3.5913   -0.0153 S.3       1 <0>         0.2013
     17 Cl1         6.7041    4.9694   -0.0323 Cl        1 <0>         0.0245
     18 S2         -6.2986   -1.2887    0.0261 S.o2      1 <0>         2.6340
     19 O2         -6.0075   -2.5692    0.5690 O.2       1 <0>        -1.0137
     20 O3         -7.2820   -0.4294    0.5862 O.2       1 <0>        -0.9489
     21 N2         -6.7270   -1.5312   -1.5550 N.2       1 <0>        -1.0389
     22 C14        -5.9405   -2.3123   -2.3683 C.2       1 <0>         0.7326
     23 N3         -4.8576   -2.8618   -1.8950 N.pl3     1 <0>        -0.8676
     24 N4         -6.2962   -2.5136   -3.6810 N.pl3     1 <0>        -0.8459
     25 H1         -1.4490   -0.8893   -0.0062 H         1 <0>         0.1386
     26 H2         -3.5662   -2.1437    0.0094 H         1 <0>         0.1352
     27 H3         -5.7489    1.5210    0.0376 H         1 <0>         0.1484
     28 H4         -3.6375    2.7853    0.0348 H         1 <0>         0.1393
     29 H5         -1.2218    2.8438    0.0234 H         1 <0>         0.4442
     30 H6          0.0023   -0.0241    0.0066 H         1 <0>         0.1666
     31 H7          1.1320    2.8663    0.0066 H         1 <0>         0.1304
     32 H8          5.1564    0.2890   -0.0351 H         1 <0>         0.1539
     33 H9          6.9867    1.9664   -0.0524 H         1 <0>         0.1476
     34 H10        -4.2283   -3.4868   -2.5458 H         1 <0>         0.4333
     35 H11        -5.6669   -3.1386   -4.3317 H         1 <0>         0.4320
     36 H12        -7.2101   -2.0497   -4.0806 H         1 <0>         0.4551
     37 H13        -4.5729   -2.7006   -0.8448 H         1 <0>         0.4398
@<TRIPOS>BOND
     1    1    6 ar
     2    1    2 ar
     3    1   25 1
     4    2    3 ar
     5    2   26 1
     6    3    4 ar
     7    3   18 1
     8    4    5 ar
     9    4   27 1
    10    5    6 ar
    11    5   28 1
    12    6    7 1
    13    7    8 1
    14    7   29 1
    15    8    9 2
    16    8   30 1
    17    9   10 1
    18    9   31 1
    19   10   11 2
    20   10   12 1
    21   12   16 1
    22   12   13 2
    23   13   14 1
    24   13   32 1
    25   14   15 2
    26   14   33 1
    27   15   16 1
    28   15   17 1
    29   18   19 2
    30   18   20 2
    31   18   21 1
    32   21   22 2
    33   22   23 1
    34   22   24 1
    35   23   34 1
    36   23   37 1
    37   24   35 1
    38   24   36 1
@<TRIPOS>MOLECULE
ZINC39404570
   49    52     0     0     0
SMALL
USER_CHARGES

@<TRIPOS>ATOM
      1 C1         -0.0167    1.3793    0.0096 C.ar      1 <0>        -0.1491
      2 C2          1.1742    2.0821    0.0020 C.ar      1 <0>        -0.0712
      3 C3          2.3793    1.4113   -0.0093 C.ar      1 <0>        -0.1348
      4 C4          2.4070    0.0187   -0.0143 C.ar      1 <0>         0.1130
      5 C5          1.2044   -0.6760   -0.0141 C.ar      1 <0>        -0.1971
      6 C6          0.0021   -0.0041    0.0020 C.ar      1 <0>        -0.0449
      7 C7          1.5446   -2.1535   -0.0451 C.3       1 <0>         0.1700
      8 H1          0.9421   -2.6764   -0.7878 H         1 <0>         0.1294
      9 C8          3.0350   -2.1299   -0.4595 C.3       1 <0>         0.0545
     10 H2          3.1366   -2.2205   -1.5410 H         1 <0>         0.1353
     11 O1          3.4686   -0.8335   -0.0140 O.3       1 <0>        -0.2684
     12 C9          3.8010   -3.2230    0.2401 C.2       1 <0>         0.5204
     13 O2          4.6716   -2.9398    1.0355 O.2       1 <0>        -0.5061
     14 N1          3.5186   -4.5153   -0.0182 N.am      1 <0>        -0.8419
     15 N2          1.3782   -2.7569    1.2794 N.am      1 <0>        -0.6934
     16 C10         0.1720   -3.2207    1.6619 C.2       1 <0>         0.5160
     17 O3         -0.7763   -3.1384    0.9092 O.2       1 <0>        -0.5106
     18 C11         0.0023   -3.8363    3.0131 C.2       1 <0>         0.5054
     19 O4          0.9505   -3.9186    3.7658 O.2       1 <0>        -0.5112
     20 N3         -1.2040   -4.3001    3.3957 N.am      1 <0>        -0.6985
     21 C12        -1.3704   -4.9036    4.7202 C.3       1 <0>         0.1214
     22 C13        -2.8245   -5.3438    4.9011 C.3       1 <0>        -0.0527
     23 C14        -2.9956   -5.9645    6.2636 C.2       1 <0>        -0.1748
     24 C15        -3.2583   -5.2547    7.5178 C.ar      1 <0>        -0.1004
     25 C16        -3.4241   -3.9104    7.8555 C.ar      1 <0>        -0.0720
     26 C17        -3.6649   -3.5621    9.1549 C.ar      1 <0>        -0.1438
     27 C18        -3.7455   -4.5343   10.1420 C.ar      1 <0>        -0.0975
     28 C19        -3.5850   -5.8669    9.8308 C.ar      1 <0>        -0.1299
     29 C20        -3.3396   -6.2442    8.5148 C.ar      1 <0>         0.0948
     30 N4         -3.1394   -7.4591    7.8984 N.pl3     1 <0>        -0.5944
     31 C21        -2.9420   -7.2733    6.5572 C.2       1 <0>         0.0634
     32 H3         -0.9581    1.9084    0.0260 H         1 <0>         0.1322
     33 H4          1.1606    3.1620    0.0046 H         1 <0>         0.1361
     34 H5          3.3049    1.9678   -0.0146 H         1 <0>         0.1334
     35 H6         -0.9257   -0.5569    0.0087 H         1 <0>         0.1315
     36 H7          2.8223   -4.7418   -0.6544 H         1 <0>         0.4041
     37 H8          4.0117   -5.2189    0.4321 H         1 <0>         0.4130
     38 H9          2.1362   -2.8227    1.8811 H         1 <0>         0.4175
     39 H10        -1.9620   -4.2343    2.7940 H         1 <0>         0.4133
     40 H11        -0.7147   -5.7697    4.8098 H         1 <0>         0.0749
     41 H12        -1.1139   -4.1728    5.4872 H         1 <0>         0.0761
     42 H13        -3.4801   -4.4776    4.8115 H         1 <0>         0.0798
     43 H14        -3.0810   -6.0745    4.1340 H         1 <0>         0.0793
     44 H15        -3.3619   -3.1484    7.0927 H         1 <0>         0.1206
     45 H16        -3.7931   -2.5219    9.4157 H         1 <0>         0.1230
     46 H17        -3.9357   -4.2433   11.1646 H         1 <0>         0.1258
     47 H18        -3.6492   -6.6160   10.6061 H         1 <0>         0.1201
     48 H19        -2.7663   -8.0626    5.8412 H         1 <0>         0.1710
     49 H20        -3.1420   -8.3189    8.3474 H         1 <0>         0.4174
@<TRIPOS>BOND
     1    1    6 ar
     2    1    2 ar
     3    1   32 1
     4    2    3 ar
     5    2   33 1
     6    3    4 ar
     7    3   34 1
     8    4   11 1
     9    4    5 ar
    10    5    6 ar
    11    5    7 1
    12    6   35 1
    13    7    8 1
    14    7    9 1
    15    7   15 1
    16    9   10 1
    17    9   11 1
    18    9   12 1
    19   12   13 2
    20   12   14 am
    21   14   36 1
    22   14   37 1
    23   15   16 am
    24   15   38 1
    25   16   17 2
    26   16   18 1
    27   18   19 2
    28   18   20 am
    29   20   21 1
    30   20   39 1
    31   21   22 1
    32   21   40 1
    33   21   41 1
    34   22   42 1
    35   22   43 1
    36   22   23 1
    37   23   24 1
    38   23   31 2
    39   24   25 ar
    40   24   29 ar
    41   25   26 ar
    42   25   44 1
    43   26   27 ar
    44   26   45 1
    45   27   28 ar
    46   27   46 1
    47   28   29 ar
    48   28   47 1
    49   29   30 1
    50   30   49 1
    51   30   31 1
    52   31   48 1
@<TRIPOS>MOLECULE
ZINC40784694
   39    41     0     0     0
SMALL
USER_CHARGES

@<TRIPOS>ATOM
      1 C1          0.1188    1.3960    0.9711 C.ar      1 <0>        -0.1404
      2 C2          1.3064    2.0726    0.7414 C.ar      1 <0>        -0.0888
      3 C3          2.3854    1.3591    0.2271 C.ar      1 <0>         0.1429
      4 C4          2.2327    0.0018   -0.0357 C.ar      1 <0>         0.1278
      5 N1          1.0844   -0.6026    0.1979 N.ar      1 <0>        -0.4528
      6 C5          0.0440    0.0463    0.6848 C.ar      1 <0>         0.0856
      7 Cl1         3.5666   -0.9049   -0.6778 Cl        1 <0>        -0.0358
      8 N2          3.6043    1.9975   -0.0221 N.pl3     1 <0>        -0.6398
      9 C6          3.6558    3.3834   -0.1205 C.ar      1 <0>         0.3909
     10 C7          4.8818    4.0405   -0.2408 C.ar      1 <0>         0.0249
     11 C8          4.8766    5.4332   -0.3367 C.ar      1 <0>         0.4075
     12 N3          3.7119    6.0768   -0.3101 N.ar      1 <0>        -0.5709
     13 C9          2.5765    5.4181   -0.1953 C.ar      1 <0>         0.3316
     14 N4          2.5369    4.1040   -0.1072 N.ar      1 <0>        -0.5589
     15 N5          6.0691    6.1366   -0.4576 N.pl3     1 <0>        -0.5087
     16 N6          6.0513    7.5343   -0.5531 N.am      1 <0>        -0.5052
     17 C10         7.2077    8.2165   -0.6704 C.2       1 <0>         0.5617
     18 O1          8.2662    7.6191   -0.6933 O.2       1 <0>        -0.5369
     19 C11         7.1889    9.6902   -0.7711 C.ar      1 <0>        -0.1423
     20 C12         5.9747   10.3793   -0.7393 C.ar      1 <0>        -0.0545
     21 C13         5.9629   11.7544   -0.8337 C.ar      1 <0>        -0.1585
     22 C14         7.1537   12.4533   -0.9605 C.ar      1 <0>         0.1324
     23 C15         8.3621   11.7741   -0.9926 C.ar      1 <0>        -0.1599
     24 C16         8.3857   10.3995   -0.8927 C.ar      1 <0>        -0.0237
     25 F1          7.1365   13.8010   -1.0536 F         1 <0>        -0.1301
     26 N7          6.0870    3.3203   -0.2640 N.pl3     1 <0>        -0.8728
     27 H1         -0.7373    1.9170    1.3736 H         1 <0>         0.1468
     28 H2          1.3925    3.1276    0.9558 H         1 <0>         0.1838
     29 H3         -0.8793   -0.4852    0.8625 H         1 <0>         0.1661
     30 H4          4.4139    1.4734   -0.1262 H         1 <0>         0.4185
     31 H5          1.6497    5.9721   -0.1767 H         1 <0>         0.2045
     32 H6          6.9137    5.6600   -0.4759 H         1 <0>         0.4396
     33 H7          5.2067    8.0109   -0.5349 H         1 <0>         0.4337
     34 H8          5.0466    9.8358   -0.6413 H         1 <0>         0.1391
     35 H9          5.0245   12.2883   -0.8093 H         1 <0>         0.1470
     36 H10         9.2867   12.3233   -1.0918 H         1 <0>         0.1474
     37 H11         9.3277    9.8717   -0.9133 H         1 <0>         0.1498
     38 H12         6.0752    2.3527   -0.1961 H         1 <0>         0.3986
     39 H13         6.9314    3.7903   -0.3480 H         1 <0>         0.4000
@<TRIPOS>BOND
     1    1    6 ar
     2    1    2 ar
     3    1   27 1
     4    2    3 ar
     5    2   28 1
     6    3    4 ar
     7    3    8 1
     8    4    5 ar
     9    4    7 1
    10    5    6 ar
    11    6   29 1
    12    8    9 1
    13    8   30 1
    14    9   14 ar
    15    9   10 ar
    16   10   11 ar
    17   10   26 1
    18   11   12 ar
    19   11   15 1
    20   12   13 ar
    21   13   14 ar
    22   13   31 1
    23   15   16 1
    24   15   32 1
    25   16   17 am
    26   16   33 1
    27   17   18 2
    28   17   19 1
    29   19   24 ar
    30   19   20 ar
    31   20   21 ar
    32   20   34 1
    33   21   22 ar
    34   21   35 1
    35   22   23 ar
    36   22   25 1
    37   23   24 ar
    38   23   36 1
    39   24   37 1
    40   26   38 1
    41   26   39 1
@<TRIPOS>MOLECULE
ZINC39344333
   39    41     0     0     0
SMALL
USER_CHARGES

@<TRIPOS>ATOM
      1 C1          0.3502    1.1320    0.2590 C.3       1 <0>        -0.1022
      2 C2          0.3414   -0.3824    0.0409 C.3       1 <0>        -0.0052
      3 H1         -0.6523   -0.7908    0.2245 H         1 <0>         0.1512
      4 C3          0.8118   -0.7252   -1.3615 C.2       1 <0>        -0.1359
      5 C4          1.9138   -1.4600   -1.1608 C.2       1 <0>         0.1634
      6 N1          2.1604   -1.5993    0.1643 N.2       1 <0>        -0.1946
      7 N2          1.3407   -1.0379    0.9013 N.2       1 <0>        -0.1317
      8 O1          2.6785   -1.9929   -2.1499 O.3       1 <0>        -0.4511
      9 C5          0.1845   -0.3313   -2.6739 C.3       1 <0>         0.1243
     10 H2          0.7585   -0.7614   -3.4946 H         1 <0>         0.1095
     11 C6          0.1793    1.1706   -2.7974 C.ar      1 <0>        -0.0918
     12 C7         -0.9669    1.8257   -3.2068 C.ar      1 <0>        -0.0512
     13 C8         -0.9752    3.2032   -3.3207 C.ar      1 <0>        -0.1265
     14 C9          0.1686    3.9321   -3.0239 C.ar      1 <0>         0.1783
     15 C10         1.3194    3.2769   -2.6131 C.ar      1 <0>        -0.1461
     16 C11         1.3230    1.8947   -2.4946 C.ar      1 <0>         0.1815
     17 O2          2.4480    1.2500   -2.0867 O.3       1 <0>        -0.4712
     18 Br1         2.8792    4.2663   -2.2079 Br        1 <0>        -0.0067
     19 O3          0.1604    5.2868   -3.1364 O.3       1 <0>        -0.4714
     20 Br2        -2.5452    4.0955   -3.8817 Br        1 <0>        -0.0180
     21 C12        -1.2313   -0.8447   -2.7280 C.2       1 <0>        -0.2556
     22 H3         -2.4714    1.3436   -1.1251 H         1 <0>         0.3940
     23 C13        -1.7119   -1.7655   -3.5946 C.2       1 <0>         0.1207
     24 N3         -3.0193   -1.9517   -3.3167 N.pl3     1 <0>        -0.4546
     25 N4         -3.3572   -1.1182   -2.2429 N.2       1 <0>        -0.2928
     26 C14        -2.2833   -0.4569   -1.8846 C.2       1 <0>         0.2720
     27 O4         -2.2036    0.4491   -0.8736 O.3       1 <0>        -0.4524
     28 C15        -0.9272   -2.4593   -4.6781 C.3       1 <0>        -0.1019
     29 H4          1.3634    1.5121    0.1279 H         1 <0>         0.0651
     30 H5         -0.3125    1.6071   -0.4642 H         1 <0>         0.0733
     31 H6          0.0062    1.3556    1.2688 H         1 <0>         0.0704
     32 H7          3.4396   -2.4967   -1.8304 H         1 <0>         0.4058
     33 H8         -1.8574    1.2603   -3.4384 H         1 <0>         0.1453
     34 H9          3.0390    0.9953   -2.8084 H         1 <0>         0.3985
     35 H10        -0.1037    5.7470   -2.3280 H         1 <0>         0.4012
     36 H11        -0.4907   -3.3756   -4.2806 H         1 <0>         0.0889
     37 H12        -1.5907   -2.7031   -5.5078 H         1 <0>         0.0794
     38 H13        -0.1327   -1.8011   -5.0295 H         1 <0>         0.0908
     39 H14        -3.6199   -2.5568   -3.7795 H         1 <0>         0.4473
@<TRIPOS>BOND
     1    1    2 1
     2    1   29 1
     3    1   30 1
     4    1   31 1
     5    2    3 1
     6    2    7 1
     7    2    4 1
     8    4    5 2
     9    4    9 1
    10    5    6 1
    11    5    8 1
    12    6    7 2
    13    8   32 1
    14    9   10 1
    15    9   11 1
    16    9   21 1
    17   11   16 ar
    18   11   12 ar
    19   12   13 ar
    20   12   33 1
    21   13   14 ar
    22   13   20 1
    23   14   15 ar
    24   14   19 1
    25   15   16 ar
    26   15   18 1
    27   16   17 1
    28   17   34 1
    29   19   35 1
    30   21   26 1
    31   21   23 2
    32   22   27 1
    33   23   28 1
    34   23   24 1
    35   24   25 1
    36   24   39 1
    37   25   26 2
    38   26   27 1
    39   28   36 1
    40   28   37 1
    41   28   38 1
@<TRIPOS>MOLECULE
ZINC04479367
   57    59     0     0     0
SMALL
USER_CHARGES
8-(2,3-dimethoxybenzoyl)amino-3,3,5,5-tetramethyl-7-thia-4-azabicyclo[4.3.0]nona-8,10-diene-9-carboxamide
@<TRIPOS>ATOM
      1 C1         -0.0127    1.0858    0.0080 C.3       1 <0>        -0.1693
      2 C2         -0.7293    1.5795    1.2676 C.3       1 <0>         0.0645
      3 C3         -2.1385    0.9808    1.3144 C.3       1 <0>        -0.0688
      4 C4         -2.9755    1.6442    0.2299 C.2       1 <0>        -0.0332
      5 C5         -4.1172    1.0460   -0.4321 C.2       1 <0>        -0.2400
      6 C6         -4.7744    1.8106   -1.3892 C.2       1 <0>         0.1058
      7 S1         -3.8779    3.2933   -1.3949 S.3       1 <0>         0.3307
      8 C7         -2.6675    2.9004   -0.1651 C.2       1 <0>        -0.2954
      9 C8         -1.5444    3.7466    0.3409 C.3       1 <0>         0.1690
     10 C9         -2.1504    5.0007    1.0025 C.3       1 <0>        -0.1810
     11 C10        -0.6737    4.2080   -0.8334 C.3       1 <0>        -0.1746
     12 N1         -5.8782    1.4682   -2.1532 N.am      1 <0>        -0.6170
     13 C11        -6.3831    2.3483   -3.0402 C.2       1 <0>         0.5649
     14 O1         -5.8698    3.4429   -3.1701 O.2       1 <0>        -0.4701
     15 C12        -7.5583    1.9837   -3.8536 C.ar      1 <0>        -0.1358
     16 C13        -8.1513    0.7260   -3.7071 C.ar      1 <0>        -0.1096
     17 C14        -9.2490    0.3893   -4.4682 C.ar      1 <0>        -0.0850
     18 C15        -9.7713    1.2914   -5.3808 C.ar      1 <0>        -0.1594
     19 C16        -9.1954    2.5405   -5.5373 C.ar      1 <0>         0.1079
     20 C17        -8.0892    2.8974   -4.7720 C.ar      1 <0>         0.1378
     21 O2         -7.5250    4.1233   -4.9185 O.3       1 <0>        -0.3088
     22 C18        -6.4866    4.2475   -5.8923 C.3       1 <0>         0.0476
     23 O3         -9.7140    3.4208   -6.4349 O.3       1 <0>        -0.3004
     24 C19       -10.8534    2.9901   -7.1821 C.3       1 <0>         0.0208
     25 C20        -4.5720   -0.3103   -0.1107 C.2       1 <0>         0.5762
     26 O4         -5.3969   -0.4834    0.7674 O.2       1 <0>        -0.5206
     27 N2         -4.0767   -1.3653   -0.7875 N.am      1 <0>        -0.8458
     28 C21         0.0478    1.0472    2.4878 C.3       1 <0>        -0.1825
     29 H1          0.0021   -0.0041    0.0020 H         1 <0>         0.1037
     30 H2          1.0099    1.4631    0.0003 H         1 <0>         0.0825
     31 H3         -0.5399    1.4469   -0.8751 H         1 <0>         0.0835
     32 H4         -2.0795   -0.0936    1.1404 H         1 <0>         0.1179
     33 H5         -2.5835    1.1695    2.2921 H         1 <0>         0.1074
     34 H6         -1.3484    5.6432    1.3661 H         1 <0>         0.0894
     35 H7         -2.7481    5.5445    0.2709 H         1 <0>         0.1069
     36 H8         -2.7830    4.7011    1.8380 H         1 <0>         0.0859
     37 H9         -0.2178    3.3404   -1.3105 H         1 <0>         0.0863
     38 H10        -1.2919    4.7380   -1.5579 H         1 <0>         0.1064
     39 H11         0.1078    4.8735   -0.4668 H         1 <0>         0.0904
     40 H12        -6.2877    0.5950   -2.0496 H         1 <0>         0.4248
     41 H13        -7.7485    0.0183   -2.9976 H         1 <0>         0.1300
     42 H14        -9.7046   -0.5831   -4.3530 H         1 <0>         0.1432
     43 H15       -10.6324    1.0188   -5.9729 H         1 <0>         0.1458
     44 H16        -6.1237    5.2752   -5.9076 H         1 <0>         0.0986
     45 H17        -5.6666    3.5764   -5.6366 H         1 <0>         0.0437
     46 H18        -6.8774    3.9855   -6.8755 H         1 <0>         0.0472
     47 H19       -10.5951    2.1018   -7.7587 H         1 <0>         0.0601
     48 H20       -11.6687    2.7548   -6.4980 H         1 <0>         0.0613
     49 H21       -11.1654    3.7850   -7.8595 H         1 <0>         0.1092
     50 H22        -3.4193   -1.2273   -1.4873 H         1 <0>         0.4041
     51 H23        -4.3776   -2.2626   -0.5748 H         1 <0>         0.4097
     52 H24         1.0699    1.4248    2.4606 H         1 <0>         0.0854
     53 H25        -0.4393    1.3829    3.4034 H         1 <0>         0.0827
     54 H26         0.0621   -0.0424    2.4623 H         1 <0>         0.1067
     55 N3         -0.7181    3.0606    1.3744 N.4       1 <0>        -0.5076
     56 H27         0.2517    3.3841    1.2801 H         1 <0>         0.4345
     57 H28        -1.0772    3.3206    2.3005 H         1 <0>         0.4325
@<TRIPOS>BOND
     1    1    2 1
     2    1   29 1
     3    1   30 1
     4    1   31 1
     5    2    3 1
     6    2   28 1
     7    2   55 1
     8    3    4 1
     9    3   32 1
    10    3   33 1
    11    4    8 2
    12    4    5 1
    13    5    6 2
    14    5   25 1
    15    6    7 1
    16    6   12 1
    17    7    8 1
    18    8    9 1
    19    9   10 1
    20    9   11 1
    21    9   55 1
    22   10   34 1
    23   10   35 1
    24   10   36 1
    25   11   37 1
    26   11   38 1
    27   11   39 1
    28   12   13 am
    29   12   40 1
    30   13   14 2
    31   13   15 1
    32   15   20 ar
    33   15   16 ar
    34   16   17 ar
    35   16   41 1
    36   17   18 ar
    37   17   42 1
    38   18   19 ar
    39   18   43 1
    40   19   20 ar
    41   19   23 1
    42   20   21 1
    43   21   22 1
    44   22   44 1
    45   22   45 1
    46   22   46 1
    47   23   24 1
    48   24   47 1
    49   24   48 1
    50   24   49 1
    51   25   26 2
    52   25   27 am
    53   27   50 1
    54   27   51 1
    55   28   52 1
    56   28   53 1
    57   28   54 1
    58   55   56 1
    59   55   57 1
@<TRIPOS>MOLECULE
ZINC13732788
   55    56     0     0     0
SMALL
USER_CHARGES
2-[3-[[4-[(2,4-dichlorophenyl)methoxy]-3-methoxy-phenyl]methylamino]propylamino]ethanol
@<TRIPOS>ATOM
      1 C1         -5.0907    2.9293    1.0040 C.3       1 <0>         0.0231
      2 O1         -5.4464    1.7105    0.3483 O.3       1 <0>        -0.2946
      3 C2         -4.4631    1.0688   -0.3378 C.ar      1 <0>         0.1109
      4 C3         -3.1843    1.6007   -0.3788 C.ar      1 <0>        -0.1541
      5 C4         -2.1857    0.9469   -1.0763 C.ar      1 <0>        -0.1801
      6 C5         -2.4611   -0.2349   -1.7387 C.ar      1 <0>        -0.0783
      7 C6         -3.7334   -0.7740   -1.6971 C.ar      1 <0>        -0.1769
      8 C7         -4.7388   -0.1237   -0.9998 C.ar      1 <0>         0.1521
      9 O2         -5.9922   -0.6500   -0.9621 O.3       1 <0>        -0.2877
     10 C8         -6.2022   -1.8766   -1.6646 C.3       1 <0>         0.1016
     11 C9         -7.6394   -2.3035   -1.5115 C.ar      1 <0>        -0.0924
     12 C10        -8.5155   -1.5291   -0.7740 C.ar      1 <0>        -0.0721
     13 C11        -9.8337   -1.9197   -0.6335 C.ar      1 <0>        -0.1016
     14 C12       -10.2774   -3.0863   -1.2311 C.ar      1 <0>        -0.0173
     15 C13        -9.4013   -3.8615   -1.9690 C.ar      1 <0>        -0.0974
     16 C14        -8.0830   -3.4672   -2.1136 C.ar      1 <0>        -0.0171
     17 Cl1        -6.9843   -4.4361   -3.0452 Cl        1 <0>        -0.0509
     18 Cl2       -11.9331   -3.5771   -1.0540 Cl        1 <0>        -0.0404
     19 C15        -0.7955    1.5269   -1.1198 C.3       1 <0>         0.0579
     20 C16         1.3525    1.5499   -0.0025 C.3       1 <0>        -0.0016
     21 C17         2.1364    0.9845    1.1836 C.3       1 <0>        -0.1854
     22 C18         3.5571    1.5522    1.1730 C.3       1 <0>        -0.0010
     23 C19         5.6818    1.5338    2.3341 C.3       1 <0>         0.0005
     24 C20         6.4326    0.9472    3.5312 C.3       1 <0>         0.0415
     25 O3          6.5703   -0.4650    3.3617 O.3       1 <0>        -0.5852
     26 H1         -5.9646    3.3369    1.5124 H         1 <0>         0.1132
     27 H2         -4.3046    2.7336    1.7333 H         1 <0>         0.0545
     28 H3         -4.7317    3.6473    0.2666 H         1 <0>         0.0599
     29 H4         -2.9677    2.5263    0.1339 H         1 <0>         0.1428
     30 H5         -1.6793   -0.7405   -2.2862 H         1 <0>         0.1370
     31 H6         -3.9448   -1.6997   -2.2117 H         1 <0>         0.1504
     32 H7         -5.9763   -1.7334   -2.7212 H         1 <0>         0.0896
     33 H8         -5.5488   -2.6466   -1.2544 H         1 <0>         0.0881
     34 H9         -8.1698   -0.6183   -0.3078 H         1 <0>         0.1513
     35 H10       -10.5178   -1.3141   -0.0576 H         1 <0>         0.1469
     36 H11        -9.7472   -4.7719   -2.4358 H         1 <0>         0.1524
     37 H12        -0.8526    2.6132   -1.0504 H         1 <0>         0.1387
     38 H13        -0.3144    1.2475   -2.0571 H         1 <0>         0.1414
     39 H14         1.8485    1.2706   -0.9321 H         1 <0>         0.1429
     40 H15         1.3102    2.6363    0.0746 H         1 <0>         0.1420
     41 H16         1.6404    1.2638    2.1131 H         1 <0>         0.1110
     42 H17         2.1787   -0.1019    1.1064 H         1 <0>         0.1120
     43 H18         4.0531    1.2730    0.2435 H         1 <0>         0.1424
     44 H19         3.5149    2.6387    1.2501 H         1 <0>         0.1421
     45 H20         6.1925    1.2544    1.4125 H         1 <0>         0.1417
     46 H21         5.6543    2.6201    2.4192 H         1 <0>         0.1472
     47 H22         7.4204    1.4030    3.5994 H         1 <0>         0.1015
     48 H23         5.8747    1.1508    4.4452 H         1 <0>         0.0744
     49 H24         7.0379   -0.9042    4.0852 H         1 <0>         0.4159
     50 N1         -0.0153    0.9979    0.0149 N.4       1 <0>        -0.5202
     51 H25         0.0315   -0.0254   -0.0540 H         1 <0>         0.4351
     52 H26        -0.4755    1.2610    0.8943 H         1 <0>         0.4338
     53 N2          4.3058    1.0025    2.3190 N.4       1 <0>        -0.5184
     54 H27         4.3387   -0.0209    2.2426 H         1 <0>         0.4431
     55 H28         3.8316    1.2655    3.1909 H         1 <0>         0.4339
@<TRIPOS>BOND
     1    1    2 1
     2    1   26 1
     3    1   27 1
     4    1   28 1
     5    2    3 1
     6    3    8 ar
     7    3    4 ar
     8    4    5 ar
     9    4   29 1
    10    5    6 ar
    11    5   19 1
    12    6    7 ar
    13    6   30 1
    14    7    8 ar
    15    7   31 1
    16    8    9 1
    17    9   10 1
    18   10   11 1
    19   10   32 1
    20   10   33 1
    21   11   16 ar
    22   11   12 ar
    23   12   13 ar
    24   12   34 1
    25   13   14 ar
    26   13   35 1
    27   14   15 ar
    28   14   18 1
    29   15   16 ar
    30   15   36 1
    31   16   17 1
    32   19   37 1
    33   19   38 1
    34   19   50 1
    35   20   21 1
    36   20   39 1
    37   20   40 1
    38   20   50 1
    39   21   22 1
    40   21   41 1
    41   21   42 1
    42   22   43 1
    43   22   44 1
    44   22   53 1
    45   23   24 1
    46   23   45 1
    47   23   46 1
    48   23   53 1
    49   24   25 1
    50   24   47 1
    51   24   48 1
    52   25   49 1
    53   50   51 1
    54   50   52 1
    55   53   54 1
    56   53   55 1
@<TRIPOS>MOLECULE
ZINC22820572
   59    62     0     0     0
SMALL
USER_CHARGES
4-[(2S)-3-[4-[(4-aminoquinazolin-2-yl)methyl]piperazin-1-yl]-2-hydroxy-propoxy]benzonitrile
@<TRIPOS>ATOM
      1 C1         -8.2445   -0.6184   -5.3390 C.ar      1 <0>        -0.0918
      2 C2         -7.8557    0.5972   -4.7829 C.ar      1 <0>        -0.0131
      3 C3         -6.5567    1.0077   -4.8292 C.ar      1 <0>        -0.1327
      4 C4         -5.5958    0.1949   -5.4459 C.ar      1 <0>         0.1705
      5 C5         -5.9935   -1.0414   -6.0111 C.ar      1 <0>        -0.1694
      6 C6         -7.3352   -1.4334   -5.9465 C.ar      1 <0>        -0.0473
      7 C7         -5.0035   -1.8437   -6.6288 C.ar      1 <0>         0.5364
      8 N1         -3.7560   -1.3932   -6.6506 N.ar      1 <0>        -0.5484
      9 C8         -3.4306   -0.2327   -6.1042 C.ar      1 <0>         0.4153
     10 N2         -4.3049    0.5513   -5.5193 N.ar      1 <0>        -0.5514
     11 C9         -1.9916    0.2111   -6.1617 C.3       1 <0>         0.0400
     12 N3         -1.2811   -0.2755   -4.9716 N.4       1 <0>        -0.4038
     13 C10         0.0538    0.3305   -4.8707 C.3       1 <0>         0.0016
     14 C11         0.7897   -0.2604   -3.6658 C.3       1 <0>         0.0222
     15 N4          0.0077   -0.0109   -2.4469 N.3       1 <0>        -0.5234
     16 C12        -1.3273   -0.6169   -2.5478 C.3       1 <0>         0.0228
     17 C13        -2.0631   -0.0259   -3.7527 C.3       1 <0>        -0.0145
     18 C14         0.7182   -0.4975   -1.2568 C.3       1 <0>         0.0608
     19 C15         0.0021   -0.0041    0.0020 C.3       1 <0>         0.1281
     20 H1         -1.0519   -0.3186    0.0104 H         1 <0>         0.0598
     21 C16         0.7421   -0.5109    1.2415 C.3       1 <0>         0.0185
     22 O1          0.0101   -0.1492    2.4144 O.3       1 <0>        -0.3127
     23 C17         0.5340   -0.5265    3.6086 C.ar      1 <0>         0.1509
     24 C18         1.7278   -1.2367    3.6481 C.ar      1 <0>        -0.2087
     25 C19         2.2657   -1.6164    4.8579 C.ar      1 <0>        -0.0281
     26 C20         1.6036   -1.2961    6.0462 C.ar      1 <0>        -0.0531
     27 C21         0.4003   -0.5866    6.0015 C.ar      1 <0>        -0.0282
     28 C22        -0.1279   -0.2062    4.7877 C.ar      1 <0>        -0.1479
     29 C23         2.1566   -1.6932    7.3059 C.1       1 <0>         0.2425
     30 N5          2.5954   -2.0082    8.3053 N.1       1 <0>        -0.3997
     31 O2         -0.0173    1.4248    0.0099 O.3       1 <0>        -0.5845
     32 N6         -5.3282   -3.0572   -7.1964 N.pl3     1 <0>        -0.7679
     33 H2         -9.2803   -0.9200   -5.2890 H         1 <0>         0.1627
     34 H3         -8.5949    1.2249   -4.3076 H         1 <0>         0.1655
     35 H4         -6.2697    1.9532   -4.3932 H         1 <0>         0.1646
     36 H5         -7.6483   -2.3744   -6.3742 H         1 <0>         0.1547
     37 H6         -1.5172   -0.1993   -7.0653 H         1 <0>         0.1902
     38 H7         -1.9476    1.3098   -6.1913 H         1 <0>         0.1714
     39 H8          0.6225    0.1197   -5.7884 H         1 <0>         0.1504
     40 H9         -0.0461    1.4185   -4.7431 H         1 <0>         0.1464
     41 H10         0.9140   -1.3441   -3.8075 H         1 <0>         0.0669
     42 H11         1.7782    0.2128   -3.5717 H         1 <0>         0.1360
     43 H12        -1.2274   -1.7049   -2.6755 H         1 <0>         0.0652
     44 H13        -1.8960   -0.4061   -1.6301 H         1 <0>         0.1299
     45 H14        -2.1872    1.0580   -3.6122 H         1 <0>         0.1455
     46 H15        -3.0517   -0.4988   -3.8480 H         1 <0>         0.1177
     47 H16         0.7331   -1.5974   -1.2629 H         1 <0>         0.0683
     48 H17         1.7502   -0.1168   -1.2646 H         1 <0>         0.1067
     49 H18         0.8355   -1.6057    1.1906 H         1 <0>         0.0732
     50 H19         1.7442   -0.0589    1.2807 H         1 <0>         0.0819
     51 H20         2.2366   -1.4877    2.7292 H         1 <0>         0.1357
     52 H21         3.1958   -2.1645    4.8879 H         1 <0>         0.1396
     53 H22        -0.1148   -0.3373    6.9175 H         1 <0>         0.1453
     54 H23        -1.0578    0.3421    4.7523 H         1 <0>         0.1431
     55 H24        -0.4931    1.9638    0.8424 H         1 <0>         0.4236
     56 H25        -4.5472   -3.6683   -7.6723 H         1 <0>         0.4696
     57 H26        -6.3683   -3.4144   -7.1734 H         1 <0>         0.4692
     58 H27        -3.9727    1.5068   -5.0873 H         1 <0>         0.4798
     59 H28        -1.1534   -1.3630   -5.0767 H         1 <0>         0.4543
@<TRIPOS>BOND
     1    1    6 ar
     2    1    2 ar
     3    1   33 1
     4    2    3 ar
     5    2   34 1
     6    3    4 ar
     7    3   35 1
     8    4   10 ar
     9    4    5 ar
    10    5    6 ar
    11    5    7 ar
    12    6   36 1
    13    7    8 ar
    14    7   32 1
    15    8    9 ar
    16    9   10 ar
    17    9   11 1
    18   10   58 1
    19   11   12 1
    20   11   37 1
    21   11   38 1
    22   12   17 1
    23   12   13 1
    24   12   59 1
    25   13   14 1
    26   13   39 1
    27   13   40 1
    28   14   15 1
    29   14   41 1
    30   14   42 1
    31   15   16 1
    32   15   18 1
    33   16   17 1
    34   16   43 1
    35   16   44 1
    36   17   45 1
    37   17   46 1
    38   18   19 1
    39   18   47 1
    40   18   48 1
    41   19   20 1
    42   19   21 1
    43   19   31 1
    44   21   22 1
    45   21   49 1
    46   21   50 1
    47   22   23 1
    48   23   28 ar
    49   23   24 ar
    50   24   25 ar
    51   24   51 1
    52   25   26 ar
    53   25   52 1
    54   26   27 ar
    55   26   29 1
    56   27   28 ar
    57   27   53 1
    58   28   54 1
    59   29   30 3
    60   31   55 1
    61   32   56 1
    62   32   57 1
@<TRIPOS>MOLECULE
ZINC39393392
   60    64     0     0     0
SMALL
USER_CHARGES

@<TRIPOS>ATOM
      1 C1         -0.7402    0.9071    0.9449 C.3       1 <0>         0.0264
      2 O1         -0.7545   -0.5170    0.8278 O.3       1 <0>        -0.3174
      3 C2         -0.0011   -1.0625   -0.1642 C.ar      1 <0>         0.1109
      4 C3          0.7374   -0.2369   -1.0076 C.ar      1 <0>        -0.1739
      5 C4          1.5056   -0.7735   -2.0168 C.ar      1 <0>        -0.0853
      6 C5          1.5490   -2.1507   -2.2017 C.ar      1 <0>         0.0678
      7 N1          2.2071   -2.9639   -3.1017 N.pl3     1 <0>        -0.5854
      8 C6          1.9049   -4.2739   -2.8547 C.2       1 <0>         0.0943
      9 H1          2.7971   -2.6519   -3.8056 H         1 <0>         0.4168
     10 C7          2.4103   -5.4736   -3.6224 C.3       1 <0>        -0.0762
     11 C8          2.2070   -6.7314   -2.7701 C.3       1 <0>         0.1095
     12 N2          0.8535   -6.7116   -2.1953 N.am      1 <0>        -0.6022
     13 C9          0.5190   -5.6389   -1.2411 C.3       1 <0>         0.1946
     14 C10         1.0641   -4.3503   -1.8053 C.2       1 <0>        -0.1988
     15 C11         0.8038   -2.9891   -1.3505 C.ar      1 <0>        -0.0510
     16 C12         0.0328   -2.4329   -0.3271 C.ar      1 <0>        -0.1173
     17 C13        -0.0558   -7.6477   -2.5319 C.2       1 <0>         0.5258
     18 O2         -1.1672   -7.6153   -2.0476 O.2       1 <0>        -0.5287
     19 C14         0.3086   -8.7347   -3.5100 C.3       1 <0>         0.0280
     20 N3         -0.8453   -9.6220   -3.7082 N.3       1 <0>        -0.3525
     21 C15        -0.5243  -10.7059   -4.6743 C.3       1 <0>         0.1946
     22 H2          0.4973  -11.0590   -4.5342 H         1 <0>         0.1286
     23 N4         -1.5034  -11.7639   -4.3095 N.3       1 <0>        -0.4367
     24 N5         -1.5954  -11.6804   -2.8494 N.4       1 <0>        -0.2563
     25 N6         -1.1809  -10.3314   -2.4707 N.3       1 <0>        -0.3492
     26 C16        -0.7406  -10.2326   -6.1131 C.3       1 <0>         0.0582
     27 N7         -0.3137  -11.2856   -7.0443 N.3       1 <0>        -0.5321
     28 C17         1.1514  -11.4032   -7.0708 C.3       1 <0>         0.0109
     29 C18         1.5492  -12.5485   -8.0057 C.3       1 <0>         0.0625
     30 O3          1.0018  -12.3086   -9.3049 O.3       1 <0>        -0.3785
     31 C19        -0.4234  -12.1893   -9.3161 C.3       1 <0>         0.0619
     32 C20        -0.8412  -11.0404   -8.3945 C.3       1 <0>         0.0185
     33 H3          0.2789    1.2461    1.1310 H         1 <0>         0.0563
     34 H4         -1.1077    1.3514    0.0199 H         1 <0>         0.0558
     35 H5         -1.3808    1.2100    1.7731 H         1 <0>         0.1024
     36 H6          0.7073    0.8338   -0.8694 H         1 <0>         0.1360
     37 H7          2.0746   -0.1238   -2.6654 H         1 <0>         0.1271
     38 H8          1.8544   -5.5708   -4.5549 H         1 <0>         0.0877
     39 H9          3.4710   -5.3475   -3.8395 H         1 <0>         0.0982
     40 H10         2.3247   -7.6172   -3.3943 H         1 <0>         0.0911
     41 H11         2.9436   -6.7501   -1.9669 H         1 <0>         0.0924
     42 H12        -0.5628   -5.5663   -1.1290 H         1 <0>         0.1024
     43 H13         0.9786   -5.8456   -0.2746 H         1 <0>         0.0843
     44 H14        -0.5370   -3.0718    0.3313 H         1 <0>         0.1314
     45 H15         0.5903   -8.2866   -4.4629 H         1 <0>         0.1393
     46 H16         1.1466   -9.3107   -3.1176 H         1 <0>         0.1043
     47 H17        -2.3999  -11.5906   -4.7388 H         1 <0>         0.3986
     48 H18        -2.5467  -11.8430   -2.5551 H         1 <0>         0.4293
     49 H19        -1.9152   -9.8551   -1.9686 H         1 <0>         0.4226
     50 H20        -1.7974  -10.0160   -6.2694 H         1 <0>         0.1027
     51 H21        -0.1546   -9.3309   -6.2910 H         1 <0>         0.0766
     52 H22         1.5849  -10.4708   -7.4324 H         1 <0>         0.0531
     53 H23         1.5182  -11.6100   -6.0654 H         1 <0>         0.0838
     54 H24         2.6358  -12.6027   -8.0729 H         1 <0>         0.1041
     55 H25         1.1607  -13.4889   -7.6149 H         1 <0>         0.0635
     56 H26        -0.7635  -11.9838  -10.3311 H         1 <0>         0.1063
     57 H27        -0.8692  -13.1193   -8.9635 H         1 <0>         0.0643
     58 H28        -1.9289  -10.9824   -8.3553 H         1 <0>         0.0929
     59 H29        -0.4395  -10.1022   -8.7773 H         1 <0>         0.0535
     60 H30        -0.9809  -12.3601   -2.4268 H         1 <0>         0.4725
@<TRIPOS>BOND
     1    1    2 1
     2    1   33 1
     3    1   34 1
     4    1   35 1
     5    2    3 1
     6    3    4 ar
     7    3   16 ar
     8    4    5 ar
     9    4   36 1
    10    5    6 ar
    11    5   37 1
    12    6    7 1
    13    6   15 ar
    14    7    9 1
    15    7    8 1
    16    8   14 2
    17    8   10 1
    18   10   11 1
    19   10   38 1
    20   10   39 1
    21   11   12 1
    22   11   40 1
    23   11   41 1
    24   12   13 1
    25   12   17 am
    26   13   42 1
    27   13   43 1
    28   13   14 1
    29   14   15 1
    30   15   16 ar
    31   16   44 1
    32   17   18 2
    33   17   19 1
    34   19   20 1
    35   19   45 1
    36   19   46 1
    37   20   25 1
    38   20   21 1
    39   21   22 1
    40   21   23 1
    41   21   26 1
    42   23   24 1
    43   23   47 1
    44   24   25 1
    45   24   48 1
    46   24   60 1
    47   25   49 1
    48   26   27 1
    49   26   50 1
    50   26   51 1
    51   27   32 1
    52   27   28 1
    53   28   29 1
    54   28   52 1
    55   28   53 1
    56   29   30 1
    57   29   54 1
    58   29   55 1
    59   30   31 1
    60   31   32 1
    61   31   56 1
    62   31   57 1
    63   32   58 1
    64   32   59 1
@<TRIPOS>MOLECULE
ZINC22075200
   55    56     0     0     0
SMALL
USER_CHARGES

@<TRIPOS>ATOM
      1 C1         -0.0187    1.5258    0.0104 C.3       1 <0>        -0.1942
      2 C2          0.0021   -0.0041    0.0020 C.3       1 <0>         0.0782
      3 H1          0.5293   -0.3651    0.8851 H         1 <0>         0.0849
      4 C3          0.7182   -0.4975   -1.2568 C.3       1 <0>        -0.0012
      5 N1          0.7381   -1.9663   -1.2649 N.4       1 <0>        -0.5016
      6 C4          1.4257   -2.4401   -2.4735 C.3       1 <0>        -0.0370
      7 C5          1.4465   -3.9699   -2.4819 C.3       1 <0>        -0.0380
      8 N2          2.1341   -4.4437   -3.6905 N.4       1 <0>        -0.5032
      9 C6          2.1540   -5.9125   -3.6986 C.3       1 <0>         0.0528
     10 C7          2.8594   -6.3985   -4.9385 C.ar      1 <0>        -0.1537
     11 C8          2.1247   -6.8237   -6.0301 C.ar      1 <0>        -0.1130
     12 C9          2.7685   -7.2701   -7.1688 C.ar      1 <0>        -0.0684
     13 C10         4.1501   -7.2939   -7.2212 C.ar      1 <0>        -0.1595
     14 C11         4.8920   -6.8693   -6.1312 C.ar      1 <0>         0.1297
     15 C12         4.2437   -6.4139   -4.9867 C.ar      1 <0>         0.0771
     16 O1          4.9676   -5.9908   -3.9161 O.3       1 <0>        -0.3301
     17 C13         5.3160   -6.9738   -2.9391 C.3       1 <0>         0.1058
     18 C14         6.1109   -6.3252   -1.8353 C.ar      1 <0>        -0.0891
     19 C15         6.3842   -4.9710   -1.8843 C.ar      1 <0>        -0.0846
     20 C16         7.1130   -4.3755   -0.8723 C.ar      1 <0>        -0.1072
     21 C17         7.5694   -5.1345    0.1909 C.ar      1 <0>        -0.0197
     22 C18         7.2959   -6.4894    0.2408 C.ar      1 <0>        -0.0931
     23 C19         6.5621   -7.0840   -0.7702 C.ar      1 <0>        -0.0199
     24 Cl1         6.2131   -8.7834   -0.7055 Cl        1 <0>        -0.0394
     25 Cl2         8.4854   -4.3864    1.4617 Cl        1 <0>        -0.0361
     26 O2          6.2509   -6.8920   -6.1812 O.3       1 <0>        -0.2984
     27 C20         6.8477   -7.3662   -7.3899 C.3       1 <0>         0.0170
     28 O3         -1.3386   -0.4987    0.0122 O.3       1 <0>        -0.5816
     29 H2          1.0039    1.9031    0.0027 H         1 <0>         0.0815
     30 H3         -0.5459    1.8868   -0.8726 H         1 <0>         0.0792
     31 H4         -0.5289    1.8773    0.9072 H         1 <0>         0.0873
     32 H5          0.1910   -0.1364   -2.1398 H         1 <0>         0.1456
     33 H6          1.7408   -0.1202   -1.2645 H         1 <0>         0.1510
     34 H7          1.2261   -2.3006   -0.4474 H         1 <0>         0.4356
     35 H8          0.8985   -2.0790   -3.3565 H         1 <0>         0.1559
     36 H9          2.4483   -2.0628   -2.4812 H         1 <0>         0.1554
     37 H10         1.9737   -4.3310   -1.5988 H         1 <0>         0.1552
     38 H11         0.4239   -4.3472   -2.4742 H         1 <0>         0.1571
     39 H12         1.6460   -4.1094   -4.5079 H         1 <0>         0.4366
     40 H13         2.6812   -6.2736   -2.8155 H         1 <0>         0.1412
     41 H14         1.1314   -6.2898   -3.6908 H         1 <0>         0.1502
     42 H15         1.0455   -6.8074   -5.9927 H         1 <0>         0.1425
     43 H16         2.1912   -7.6014   -8.0193 H         1 <0>         0.1477
     44 H17         4.6507   -7.6438   -8.1119 H         1 <0>         0.1503
     45 H18         4.4081   -7.4114   -2.5242 H         1 <0>         0.0743
     46 H19         5.9148   -7.7550   -3.4073 H         1 <0>         0.0883
     47 H20         6.0282   -4.3781   -2.7139 H         1 <0>         0.1440
     48 H21         7.3268   -3.3176   -0.9115 H         1 <0>         0.1436
     49 H22         7.6519   -7.0822    1.0704 H         1 <0>         0.1537
     50 H23         7.9332   -7.3323   -7.2967 H         1 <0>         0.1155
     51 H24         6.5307   -8.3928   -7.5733 H         1 <0>         0.0660
     52 H25         6.5346   -6.7351   -8.2216 H         1 <0>         0.0657
     53 H26        -1.8531   -0.2245    0.7836 H         1 <0>         0.4166
     54 H27         3.0807   -4.0944   -3.6977 H         1 <0>         0.4392
     55 H28        -0.2085   -2.3156   -1.2577 H         1 <0>         0.4442
@<TRIPOS>BOND
     1    1    2 1
     2    1   29 1
     3    1   30 1
     4    1   31 1
     5    2    3 1
     6    2    4 1
     7    2   28 1
     8    4    5 1
     9    4   32 1
    10    4   33 1
    11    5    6 1
    12    5   34 1
    13    5   55 1
    14    6    7 1
    15    6   35 1
    16    6   36 1
    17    7    8 1
    18    7   37 1
    19    7   38 1
    20    8    9 1
    21    8   39 1
    22    8   54 1
    23    9   10 1
    24    9   40 1
    25    9   41 1
    26   10   15 ar
    27   10   11 ar
    28   11   12 ar
    29   11   42 1
    30   12   13 ar
    31   12   43 1
    32   13   14 ar
    33   13   44 1
    34   14   15 ar
    35   14   26 1
    36   15   16 1
    37   16   17 1
    38   17   18 1
    39   17   45 1
    40   17   46 1
    41   18   23 ar
    42   18   19 ar
    43   19   20 ar
    44   19   47 1
    45   20   21 ar
    46   20   48 1
    47   21   22 ar
    48   21   25 1
    49   22   23 ar
    50   22   49 1
    51   23   24 1
    52   26   27 1
    53   27   50 1
    54   27   51 1
    55   27   52 1
    56   28   53 1
@<TRIPOS>MOLECULE
ZINC08790475
   65    69     0     0     0
SMALL
USER_CHARGES
2-[2-(3,4-dimethoxyphenyl)ethyl-methyl-trioxo-BLAHyl]acetamide
@<TRIPOS>ATOM
      1 C1          2.7239    0.1039   -5.9181 C.3       1 <0>        -0.1231
      2 C2          3.3720   -1.1214   -5.3268 C.ar      1 <0>        -0.0794
      3 C3          2.9562   -2.3817   -5.7161 C.ar      1 <0>        -0.0434
      4 C4          3.5457   -3.5067   -5.1782 C.ar      1 <0>        -0.1125
      5 C5          4.5660   -3.3818   -4.2381 C.ar      1 <0>         0.1720
      6 C6          4.9768   -2.1086   -3.8544 C.ar      1 <0>        -0.2103
      7 C7          4.3848   -0.9882   -4.3935 C.ar      1 <0>        -0.0504
      8 C8          6.0719   -2.3166   -2.8472 C.3       1 <0>         0.0941
      9 C9          5.7285   -1.6720   -1.4993 C.3       1 <0>        -0.1265
     10 H1          5.9882   -2.3087   -0.6535 H         1 <0>         0.1770
     11 C10         6.4908   -0.3176   -1.5060 C.3       1 <0>        -0.1405
     12 H2          7.1838   -0.2169   -0.6706 H         1 <0>         0.1801
     13 C11         7.1995   -0.2702   -2.8766 C.3       1 <0>         0.0608
     14 H3          6.5924    0.2755   -3.5989 H         1 <0>         0.1597
     15 C12         8.5787    0.3782   -2.7407 C.3       1 <0>        -0.1655
     16 C13         9.2329    0.4559   -4.0960 C.2       1 <0>         0.5139
     17 O1          8.6532    0.0342   -5.0743 O.2       1 <0>        -0.5541
     18 N1         10.4623    0.9940   -4.2210 N.am      1 <0>        -0.8320
     19 C14         5.3794    0.7075   -1.4926 C.2       1 <0>         0.5319
     20 O2          5.5354    1.9097   -1.4912 O.2       1 <0>        -0.4360
     21 N2          4.1970    0.0815   -1.4790 N.am      1 <0>        -0.5623
     22 C15         4.2755   -1.2542   -1.4865 C.2       1 <0>         0.5412
     23 O3          3.3289   -2.0115   -1.4838 O.2       1 <0>        -0.4265
     24 C16         2.9203    0.7999   -1.4634 C.3       1 <0>         0.1028
     25 C17         2.4894    1.0428   -0.0156 C.3       1 <0>        -0.0872
     26 C18         1.1761    1.7818    0.0004 C.ar      1 <0>        -0.0930
     27 C19        -0.0126    1.0758    0.0080 C.ar      1 <0>        -0.1058
     28 C20        -1.2199    1.7491    0.0173 C.ar      1 <0>        -0.1708
     29 C21        -1.2404    3.1346    0.0298 C.ar      1 <0>         0.1075
     30 C22        -0.0440    3.8451    0.0227 C.ar      1 <0>         0.1034
     31 C23         1.1627    3.1641    0.0079 C.ar      1 <0>        -0.1649
     32 O4         -0.0590    5.2050    0.0297 O.3       1 <0>        -0.3034
     33 C24         1.2070    5.8678    0.0212 C.3       1 <0>         0.0258
     34 O5         -2.4272    3.7985    0.0443 O.3       1 <0>        -0.3042
     35 C25        -3.6150    3.0040    0.0509 C.3       1 <0>         0.0244
     36 C26         6.2110   -3.8096   -2.7233 C.2       1 <0>         0.5387
     37 O6          6.9870   -4.4077   -2.0084 O.2       1 <0>        -0.4431
     38 N3          5.3060   -4.3530   -3.5601 N.am      1 <0>        -0.6344
     39 H4          1.8712    0.3957   -5.3050 H         1 <0>         0.0826
     40 H5          3.4467    0.9193   -5.9468 H         1 <0>         0.0730
     41 H6          2.3849   -0.1169   -6.9303 H         1 <0>         0.0813
     42 H7          2.1657   -2.4855   -6.4447 H         1 <0>         0.1508
     43 H8          3.2155   -4.4875   -5.4872 H         1 <0>         0.1473
     44 H9          4.7109   -0.0052   -4.0875 H         1 <0>         0.1258
     45 H10         8.4692    1.3827   -2.3319 H         1 <0>         0.1575
     46 H11         9.1974   -0.2206   -2.0724 H         1 <0>         0.1333
     47 H12        10.9259    1.3313   -3.4386 H         1 <0>         0.4128
     48 H13        10.8834    1.0440   -5.0934 H         1 <0>         0.4176
     49 H14         2.1624    0.2051   -1.9732 H         1 <0>         0.1058
     50 H15         3.0353    1.7563   -1.9736 H         1 <0>         0.1054
     51 H16         3.2472    1.6376    0.4942 H         1 <0>         0.0802
     52 H17         2.3743    0.0864    0.4945 H         1 <0>         0.0817
     53 H18         0.0021   -0.0041    0.0020 H         1 <0>         0.1275
     54 H19        -2.1471    1.1953    0.0191 H         1 <0>         0.1387
     55 H20         2.0926    3.7132    0.0020 H         1 <0>         0.1358
     56 H21         1.7755    5.5766    0.9044 H         1 <0>         0.0553
     57 H22         1.7589    5.5856   -0.8755 H         1 <0>         0.0543
     58 H23         1.0523    6.9467    0.0280 H         1 <0>         0.1040
     59 H24        -4.4883    3.6561    0.0624 H         1 <0>         0.1046
     60 H25        -3.6395    2.3796   -0.8423 H         1 <0>         0.0563
     61 H26        -3.6232    2.3701    0.9376 H         1 <0>         0.0570
     62 H27         5.1827   -5.3079   -3.6780 H         1 <0>         0.4390
     63 N4          7.3067   -1.6777   -3.2679 N.4       1 <0>        -0.4867
     64 H28         7.4179   -1.7555   -4.2856 H         1 <0>         0.4556
     65 H29         8.1098   -2.1155   -2.8013 H         1 <0>         0.4398
@<TRIPOS>BOND
     1    1    2 1
     2    1   39 1
     3    1   40 1
     4    1   41 1
     5    2    7 ar
     6    2    3 ar
     7    3    4 ar
     8    3   42 1
     9    4    5 ar
    10    4   43 1
    11    5   38 1
    12    5    6 ar
    13    6    7 ar
    14    6    8 1
    15    7   44 1
    16    8    9 1
    17    8   36 1
    18    8   63 1
    19    9   10 1
    20    9   22 1
    21    9   11 1
    22   11   12 1
    23   11   13 1
    24   11   19 1
    25   13   14 1
    26   13   15 1
    27   13   63 1
    28   15   16 1
    29   15   45 1
    30   15   46 1
    31   16   17 2
    32   16   18 am
    33   18   47 1
    34   18   48 1
    35   19   20 2
    36   19   21 am
    37   21   22 am
    38   21   24 1
    39   22   23 2
    40   24   25 1
    41   24   49 1
    42   24   50 1
    43   25   26 1
    44   25   51 1
    45   25   52 1
    46   26   31 ar
    47   26   27 ar
    48   27   28 ar
    49   27   53 1
    50   28   29 ar
    51   28   54 1
    52   29   30 ar
    53   29   34 1
    54   30   31 ar
    55   30   32 1
    56   31   55 1
    57   32   33 1
    58   33   56 1
    59   33   57 1
    60   33   58 1
    61   34   35 1
    62   35   59 1
    63   35   60 1
    64   35   61 1
    65   36   37 2
    66   36   38 am
    67   38   62 1
    68   63   64 1
    69   63   65 1
@<TRIPOS>MOLECULE
ZINC20685677
   62    64     0     0     0
SMALL
USER_CHARGES
2-[(1-butyl-5-sulfamoyl-benzimidazol-2-yl)methyl-methyl-amino]-N-(5-chloro-2-methoxy-phenyl)acetamide
@<TRIPOS>ATOM
      1 C1          2.2379   -4.4525   -3.0361 C.3       1 <0>        -0.1587
      2 C2          2.0347   -4.0143   -1.5843 C.3       1 <0>        -0.1220
      3 C3          1.8254   -2.4995   -1.5335 C.3       1 <0>        -0.1420
      4 C4          1.6222   -2.0612   -0.0817 C.3       1 <0>         0.0963
      5 N1          1.3040   -0.6317   -0.0432 N.pl3     1 <0>        -0.4772
      6 C5          2.2113    0.4087   -0.0382 C.ar      1 <0>         0.1195
      7 C6          3.5974    0.4830   -0.0651 C.ar      1 <0>        -0.1277
      8 C7          4.2156    1.7150   -0.0503 C.ar      1 <0>         0.0101
      9 C8          3.4620    2.8796   -0.0089 C.ar      1 <0>        -0.6616
     10 C9          2.0973    2.8259    0.0180 C.ar      1 <0>         0.0604
     11 C10         1.4488    1.5881    0.0037 C.ar      1 <0>         0.0160
     12 N2          0.1435    1.2146    0.0218 N.2       1 <0>        -0.4259
     13 C11         0.0595   -0.0835   -0.0056 C.2       1 <0>         0.2012
     14 C12        -1.2286   -0.8657    0.0029 C.3       1 <0>         0.0868
     15 N3         -1.5540   -1.2581    1.3806 N.4       1 <0>        -0.3915
     16 C13        -1.8859   -0.0836    2.1981 C.3       1 <0>        -0.0560
     17 C14        -2.6452   -2.2413    1.4042 C.3       1 <0>        -0.0275
     18 C15        -2.7867   -2.8016    2.7960 C.2       1 <0>         0.5008
     19 O1         -2.0508   -2.4195    3.6812 O.2       1 <0>        -0.5166
     20 N4         -3.7308   -3.7272    3.0570 N.am      1 <0>        -0.6417
     21 C16        -3.9240   -4.1803    4.3688 C.ar      1 <0>         0.1089
     22 C17        -2.8800   -4.1346    5.2811 C.ar      1 <0>        -0.0860
     23 C18        -3.0744   -4.5787    6.5763 C.ar      1 <0>        -0.0555
     24 C19        -4.3061   -5.0775    6.9623 C.ar      1 <0>        -0.0696
     25 C20        -5.3491   -5.1300    6.0565 C.ar      1 <0>        -0.1755
     26 C21        -5.1633   -4.6829    4.7585 C.ar      1 <0>         0.1193
     27 O2         -6.1887   -4.7342    3.8667 O.3       1 <0>        -0.3197
     28 C22        -7.4310   -5.2618    4.3363 C.3       1 <0>         0.0210
     29 Cl1        -1.7686   -4.5161    7.7186 Cl        1 <0>        -0.0511
     30 S1          4.2736    4.4434    0.0087 S.o2      1 <0>         2.6370
     31 O3          3.3672    5.3649    0.5990 O.2       1 <0>        -0.9786
     32 O4          5.5772    4.2186    0.5276 O.2       1 <0>        -0.9411
     33 N5          4.4661    4.9129   -1.5677 N.pl3     1 <0>        -1.1603
     34 H1          2.3884   -5.5415   -3.0727 H         1 <0>         0.0643
     35 H2          3.1215   -3.9460   -3.4517 H         1 <0>         0.0599
     36 H3          1.3499   -4.1849   -3.6276 H         1 <0>         0.0565
     37 H4          1.1511   -4.5208   -1.1687 H         1 <0>         0.0644
     38 H5          2.9227   -4.2819   -0.9928 H         1 <0>         0.0716
     39 H6          2.7090   -1.9931   -1.9492 H         1 <0>         0.0816
     40 H7          0.9374   -2.2320   -2.1250 H         1 <0>         0.0728
     41 H8          0.7938   -2.6333    0.3615 H         1 <0>         0.0869
     42 H9          2.5434   -2.2473    0.4899 H         1 <0>         0.1102
     43 H10         4.1886   -0.4203   -0.0977 H         1 <0>         0.1414
     44 H11         5.2938    1.7744   -0.0708 H         1 <0>         0.1595
     45 H12         1.5205    3.7384    0.0498 H         1 <0>         0.1570
     46 H13        -2.0391   -0.2418   -0.4018 H         1 <0>         0.1692
     47 H14        -1.1146   -1.7667   -0.6178 H         1 <0>         0.1526
     48 H15        -2.1249   -0.4055    3.2224 H         1 <0>         0.1417
     49 H16        -2.7551    0.4318    1.7635 H         1 <0>         0.1260
     50 H17        -1.0263    0.6023    2.2204 H         1 <0>         0.1272
     51 H18        -3.5853   -1.7528    1.1083 H         1 <0>         0.1691
     52 H19        -2.4190   -3.0571    0.7018 H         1 <0>         0.1659
     53 H20        -4.3497   -4.1270    2.2402 H         1 <0>         0.4542
     54 H21        -1.9168   -3.7492    4.9809 H         1 <0>         0.1673
     55 H22        -4.4529   -5.4268    7.9737 H         1 <0>         0.1447
     56 H23        -6.3091   -5.5201    6.3608 H         1 <0>         0.1487
     57 H24        -8.1681   -5.2460    3.5199 H         1 <0>         0.1106
     58 H25        -7.7971   -4.6484    5.1728 H         1 <0>         0.0638
     59 H26        -7.2840   -6.2971    4.6777 H         1 <0>         0.0645
     60 H27         4.9715    5.8894   -1.6003 H         1 <0>         0.4204
     61 H28         3.4804    4.9939   -2.0491 H         1 <0>         0.4097
     62 H29        -0.6623   -1.7323    1.8165 H         1 <0>         0.4468
@<TRIPOS>BOND
     1    1    2 1
     2    1   34 1
     3    1   35 1
     4    1   36 1
     5    2    3 1
     6    2   37 1
     7    2   38 1
     8    3    4 1
     9    3   39 1
    10    3   40 1
    11    4    5 1
    12    4   41 1
    13    4   42 1
    14    5   13 1
    15    5    6 1
    16    6   11 ar
    17    6    7 ar
    18    7    8 ar
    19    7   43 1
    20    8    9 ar
    21    8   44 1
    22    9   10 ar
    23    9   30 1
    24   10   11 ar
    25   10   45 1
    26   11   12 1
    27   12   13 2
    28   13   14 1
    29   14   15 1
    30   14   46 1
    31   14   47 1
    32   15   16 1
    33   15   17 1
    34   15   62 1
    35   16   48 1
    36   16   49 1
    37   16   50 1
    38   17   18 1
    39   17   51 1
    40   17   52 1
    41   18   19 2
    42   18   20 am
    43   20   21 1
    44   20   53 1
    45   21   26 ar
    46   21   22 ar
    47   22   23 ar
    48   22   54 1
    49   23   24 ar
    50   23   29 1
    51   24   25 ar
    52   24   55 1
    53   25   26 ar
    54   25   56 1
    55   26   27 1
    56   27   28 1
    57   28   57 1
    58   28   58 1
    59   28   59 1
    60   30   31 2
    61   30   32 2
    62   30   33 1
    63   33   60 1
    64   33   61 1
@<TRIPOS>MOLECULE
ZINC37867407
   60    62     0     0     0
SMALL
USER_CHARGES

@<TRIPOS>ATOM
      1 C1         -6.3429   -6.9552   -2.1383 C.3       1 <0>        -0.1571
      2 C2         -4.8314   -6.8817   -1.9131 C.3       1 <0>         0.0761
      3 O1         -4.5147   -7.4189   -0.6273 O.3       1 <0>        -0.3461
      4 C3         -3.2110   -7.4282   -0.2702 C.2       1 <0>         0.6504
      5 O2         -2.3664   -6.9905   -1.0336 O.2       1 <0>        -0.5342
      6 N1         -2.8503   -7.9132    0.9099 N.am      1 <0>        -0.6159
      7 C4         -1.5606   -7.8024    1.3248 C.2       1 <0>         0.2875
      8 C5         -1.0957   -8.6014    2.3855 C.2       1 <0>        -0.1461
      9 C6          0.1908   -8.4999    2.8090 C.2       1 <0>        -0.0047
     10 C7          1.0657   -7.5919    2.1859 C.2       1 <0>        -0.1812
     11 C8          2.4049   -7.4722    2.6107 C.2       1 <0>         0.1532
     12 C9          3.2234   -6.5659    1.9653 C.2       1 <0>        -0.2313
     13 C10         2.7210   -5.7993    0.9246 C.2       1 <0>         0.4641
     14 O3          3.5301   -4.9196    0.3035 O.3       1 <0>        -0.3605
     15 O4          1.4501   -5.9155    0.5244 O.3       1 <0>        -0.1975
     16 C11         0.6077   -6.7851    1.1197 C.2       1 <0>         0.1960
     17 C12        -0.7024   -6.9002    0.6923 C.2       1 <0>        -0.1813
     18 C13         2.9314   -8.3143    3.7442 C.3       1 <0>         0.0747
     19 O5          3.3752   -7.4637    4.8032 O.3       1 <0>        -0.3411
     20 C14         3.8763   -8.0614    5.8956 C.2       1 <0>         0.4712
     21 O6          3.9362   -9.2670    5.9508 O.2       1 <0>        -0.4765
     22 C15         4.3643   -7.2290    7.0532 C.3       1 <0>         0.1282
     23 N2          4.8596   -8.1100    8.1137 N.pl3     1 <0>        -1.1142
     24 S1          5.7890   -7.4918    9.3370 S.o2      1 <0>         2.7008
     25 O7          6.0850   -8.5741   10.2089 O.2       1 <0>        -0.9406
     26 O8          6.8035   -6.7103    8.7210 O.2       1 <0>        -0.9478
     27 C16         4.7756   -6.3743   10.2474 C.ar      1 <0>        -0.7015
     28 C17         4.7202   -5.0411    9.8845 C.ar      1 <0>        -0.0028
     29 C18         3.9268   -4.1626   10.5961 C.ar      1 <0>        -0.1447
     30 C19         3.1840   -4.6196   11.6768 C.ar      1 <0>         0.2099
     31 C20         3.2416   -5.9592   12.0385 C.ar      1 <0>        -0.1671
     32 C21         4.0331   -6.8335   11.3198 C.ar      1 <0>         0.0065
     33 N3          2.3796   -3.7321   12.4001 N.am      1 <0>        -0.6795
     34 C22         1.7833   -2.6989   11.7729 C.2       1 <0>         0.5150
     35 O9          1.8790   -2.5833   10.5693 O.2       1 <0>        -0.5207
     36 C23         0.9977   -1.6873   12.5669 C.3       1 <0>        -0.1761
     37 H1         -6.8536   -6.3779   -1.3676 H         1 <0>         0.0712
     38 H2         -6.5844   -6.5454   -3.1191 H         1 <0>         0.0917
     39 H3         -6.6676   -7.9945   -2.0888 H         1 <0>         0.0716
     40 H4         -4.3207   -7.4590   -2.6838 H         1 <0>         0.0781
     41 H5         -4.5067   -5.8424   -1.9626 H         1 <0>         0.0773
     42 H6         -3.5068   -8.3470    1.4771 H         1 <0>         0.4393
     43 H7         -1.7657   -9.2991    2.8658 H         1 <0>         0.1689
     44 H8          0.5416   -9.1157    3.6240 H         1 <0>         0.1698
     45 H9          4.2532   -6.4542    2.2711 H         1 <0>         0.2028
     46 H10        -1.0615   -6.2919   -0.1246 H         1 <0>         0.2051
     47 H11         2.1390   -8.9671    4.1103 H         1 <0>         0.1106
     48 H12         3.7660   -8.9193    3.3901 H         1 <0>         0.1264
     49 H13         5.1700   -6.5763    6.7172 H         1 <0>         0.1327
     50 H14         3.5430   -6.6241    7.4374 H         1 <0>         0.1188
     51 H15         4.6432   -9.0554    8.0994 H         1 <0>         0.4309
     52 H16         5.2981   -4.6864    9.0439 H         1 <0>         0.1453
     53 H17         3.8844   -3.1214   10.3126 H         1 <0>         0.1467
     54 H18         2.6653   -6.3175   12.8787 H         1 <0>         0.1398
     55 H19         4.0752   -7.8762   11.5980 H         1 <0>         0.1475
     56 H20         2.2512   -3.8604   13.3530 H         1 <0>         0.4192
     57 H21         1.6522   -1.2102   13.2963 H         1 <0>         0.0973
     58 H22         0.5925   -0.9320   11.8935 H         1 <0>         0.1007
     59 H23         0.1800   -2.1880   13.0853 H         1 <0>         0.0954
     60 H24         3.1014   -4.4266   -0.4095 H         1 <0>         0.4482
@<TRIPOS>BOND
     1    1    2 1
     2    1   37 1
     3    1   38 1
     4    1   39 1
     5    2    3 1
     6    2   40 1
     7    2   41 1
     8    3    4 1
     9    4    5 2
    10    4    6 am
    11    6    7 2
    12    6   42 1
    13    7   17 1
    14    7    8 1
    15    8    9 2
    16    8   43 1
    17    9   10 1
    18    9   44 1
    19   10   16 1
    20   10   11 2
    21   11   12 1
    22   11   18 1
    23   12   13 2
    24   12   45 1
    25   13   14 1
    26   13   15 1
    27   14   60 1
    28   15   16 1
    29   16   17 2
    30   17   46 1
    31   18   19 1
    32   18   47 1
    33   18   48 1
    34   19   20 1
    35   20   21 2
    36   20   22 1
    37   22   23 1
    38   22   49 1
    39   22   50 1
    40   23   24 1
    41   23   51 1
    42   24   25 2
    43   24   26 2
    44   24   27 1
    45   27   32 ar
    46   27   28 ar
    47   28   29 ar
    48   28   52 1
    49   29   30 ar
    50   29   53 1
    51   30   31 ar
    52   30   33 1
    53   31   32 ar
    54   31   54 1
    55   32   55 1
    56   33   34 am
    57   33   56 1
    58   34   35 2
    59   34   36 1
    60   36   57 1
    61   36   58 1
    62   36   59 1
@<TRIPOS>MOLECULE
ZINC39611058
   56    59     0     0     0
SMALL
USER_CHARGES

@<TRIPOS>ATOM
      1 C1          0.2804    1.4780   -0.3313 C.3       1 <0>         0.0262
      2 O1          0.1928    0.0559   -0.2215 O.3       1 <0>        -0.3156
      3 C2         -1.0496   -0.4934   -0.2901 C.ar      1 <0>         0.1124
      4 C3         -2.1585    0.3178   -0.4651 C.ar      1 <0>        -0.1864
      5 C4         -3.4211   -0.2420   -0.5343 C.ar      1 <0>        -0.0891
      6 C5         -3.5810   -1.6113   -0.4297 C.ar      1 <0>        -0.1243
      7 C6         -2.4794   -2.4278   -0.2554 C.ar      1 <0>        -0.1404
      8 C7         -1.2093   -1.8737   -0.1904 C.ar      1 <0>         0.1192
      9 N1         -0.0917   -2.6989   -0.0197 N.pl3     1 <0>        -1.0422
     10 S1         -0.0517   -4.1956   -0.7273 S.o2      1 <0>         2.6912
     11 O2          1.2470   -4.7218   -0.4914 O.2       1 <0>        -0.9399
     12 O3         -1.2331   -4.8703   -0.3172 O.2       1 <0>        -0.9380
     13 C8         -0.1884   -3.9532   -2.4672 C.ar      1 <0>        -0.6806
     14 C9         -1.4365   -3.9240   -3.0642 C.ar      1 <0>         0.0232
     15 C10        -1.5526   -3.7342   -4.4296 C.ar      1 <0>        -0.1378
     16 C11        -0.4229   -3.5730   -5.2053 C.ar      1 <0>        -0.0282
     17 C12         0.8387   -3.6013   -4.6095 C.ar      1 <0>        -0.1589
     18 C13         0.9486   -3.7872   -3.2303 C.ar      1 <0>         0.0539
     19 C14         2.0535   -3.4297   -5.4346 C.2       1 <0>         0.5740
     20 O4          3.1511   -3.4548   -4.9129 O.2       1 <0>        -0.5113
     21 N2          1.9438   -3.2455   -6.7652 N.am      1 <0>        -0.5186
     22 N3          3.0949   -3.0829   -7.5471 N.am      1 <0>        -0.4817
     23 C15         2.9853   -2.8986   -8.8777 C.2       1 <0>         0.5395
     24 O5          1.8881   -2.8735   -9.3991 O.2       1 <0>        -0.4860
     25 C16         4.1992   -2.7272   -9.7022 C.2       1 <0>         0.1019
     26 C17         4.1202   -2.4191  -11.0442 C.ar      1 <0>        -0.1168
     27 C18         2.8255   -2.2498  -11.7041 C.ar      1 <0>         0.0022
     28 C19         2.8000   -1.9468  -13.0253 C.ar      1 <0>        -0.1650
     29 C20         3.9801   -1.7946  -13.7637 C.ar      1 <0>         0.1031
     30 C21         5.2110   -1.9380  -13.2152 C.ar      1 <0>        -0.2322
     31 C22         5.3514   -2.2526  -11.8459 C.ar      1 <0>         0.3677
     32 N4          6.5581   -2.3912  -11.3162 N.am      1 <0>        -0.5863
     33 C23         6.7640   -2.6872  -10.0386 C.2       1 <0>         0.5222
     34 O6          7.8978   -2.8007   -9.6155 O.2       1 <0>        -0.4145
     35 C24         5.5870   -2.8760   -9.1085 C.3       1 <0>        -0.1715
     36 H1          1.3241    1.7843   -0.2607 H         1 <0>         0.1029
     37 H2         -0.1269    1.7940   -1.2917 H         1 <0>         0.0562
     38 H3         -0.2893    1.9404    0.4748 H         1 <0>         0.0596
     39 H4         -2.0372    1.3878   -0.5472 H         1 <0>         0.1347
     40 H5         -4.2847    0.3922   -0.6701 H         1 <0>         0.1312
     41 H6         -4.5691   -2.0439   -0.4839 H         1 <0>         0.1357
     42 H7         -2.6072   -3.4971   -0.1735 H         1 <0>         0.1674
     43 H8          0.6595   -2.3941    0.5130 H         1 <0>         0.4330
     44 H9         -2.3238   -4.0505   -2.4616 H         1 <0>         0.1534
     45 H10        -2.5296   -3.7125   -4.8894 H         1 <0>         0.1499
     46 H11        -0.5149   -3.4255   -6.2712 H         1 <0>         0.1362
     47 H12         1.9218   -3.8054   -2.7624 H         1 <0>         0.1589
     48 H13         1.0679   -3.2254   -7.1815 H         1 <0>         0.4397
     49 H14         3.9708   -3.1029   -7.1308 H         1 <0>         0.4414
     50 H15         1.9064   -2.3645  -11.1487 H         1 <0>         0.2028
     51 H16         1.8480   -1.8203  -13.5196 H         1 <0>         0.1690
     52 H17         3.9063   -1.5535  -14.8139 H         1 <0>         0.1714
     53 H18         6.0902   -1.8103  -13.8292 H         1 <0>         0.1761
     54 H19         5.6808   -2.1584   -8.2935 H         1 <0>         0.1820
     55 H20         5.6619   -3.8752   -8.6795 H         1 <0>         0.1828
     56 H21         7.3300   -2.2705  -11.8911 H         1 <0>         0.4441
@<TRIPOS>BOND
     1    1    2 1
     2    1   36 1
     3    1   37 1
     4    1   38 1
     5    2    3 1
     6    3    8 ar
     7    3    4 ar
     8    4    5 ar
     9    4   39 1
    10    5    6 ar
    11    5   40 1
    12    6    7 ar
    13    6   41 1
    14    7    8 ar
    15    7   42 1
    16    8    9 1
    17    9   10 1
    18    9   43 1
    19   10   11 2
    20   10   12 2
    21   10   13 1
    22   13   18 ar
    23   13   14 ar
    24   14   15 ar
    25   14   44 1
    26   15   16 ar
    27   15   45 1
    28   16   17 ar
    29   16   46 1
    30   17   18 ar
    31   17   19 1
    32   18   47 1
    33   19   20 2
    34   19   21 am
    35   21   22 1
    36   21   48 1
    37   22   23 am
    38   22   49 1
    39   23   24 2
    40   23   25 1
    41   25   35 1
    42   25   26 2
    43   26   31 ar
    44   26   27 ar
    45   27   28 ar
    46   27   50 1
    47   28   29 ar
    48   28   51 1
    49   29   30 ar
    50   29   52 1
    51   30   31 ar
    52   30   53 1
    53   31   32 2
    54   32   33 am
    55   32   56 1
    56   33   34 2
    57   33   35 1
    58   35   54 1
    59   35   55 1
@<TRIPOS>MOLECULE
ZINC40953225
   72    75     0     0     0
SMALL
USER_CHARGES

@<TRIPOS>ATOM
      1 C1         -0.0187    1.5258    0.0104 C.3       1 <0>        -0.1652
      2 C2          0.0021   -0.0041    0.0020 C.3       1 <0>         0.0987
      3 N1          0.6878   -0.4765   -1.2033 N.pl3     1 <0>        -0.4450
      4 C3          0.1084   -0.7452   -2.4220 C.ar      1 <0>         0.0729
      5 C4         -1.1885   -0.6848   -2.9333 C.ar      1 <0>         0.0984
      6 C5         -1.4068   -1.0423   -4.2530 C.ar      1 <0>         0.0255
      7 N2         -0.4156   -1.4373   -5.0310 N.ar      1 <0>        -0.4279
      8 C6          0.8360   -1.5144   -4.6003 C.ar      1 <0>         0.2931
      9 C7          1.1491   -1.1685   -3.2692 C.ar      1 <0>         0.0633
     10 N3          2.2847   -1.1401   -2.5504 N.2       1 <0>        -0.4382
     11 C8          2.0279   -0.7287   -1.3319 C.2       1 <0>         0.3431
     12 C9          3.0324   -0.5655   -0.2583 C.2       1 <0>         0.1305
     13 C10         4.4724   -0.8253   -0.3802 C.2       1 <0>         0.3642
     14 N4          5.0335   -0.5707    0.7697 N.2       1 <0>        -0.3423
     15 O1          4.0212   -0.1472    1.6654 O.3       1 <0>         0.0502
     16 N5          2.7917   -0.1594    0.9619 N.2       1 <0>        -0.2475
     17 N6          5.1251   -1.2670   -1.5235 N.pl3     1 <0>        -0.8007
     18 C11         1.8718   -1.9500   -5.4881 C.1       1 <0>        -0.1221
     19 C12         2.7209   -2.3071   -6.2159 C.1       1 <0>        -0.1235
     20 C13         3.7856   -2.7549   -7.1284 C.3       1 <0>         0.2403
     21 C14         5.1250   -2.7540   -6.3888 C.3       1 <0>        -0.1760
     22 C15         3.4749   -4.1704   -7.6190 C.3       1 <0>        -0.1392
     23 O2          3.8585   -1.8683   -8.2468 O.3       1 <0>        -0.5437
     24 O3         -2.2219   -0.2814   -2.1476 O.3       1 <0>        -0.3074
     25 C16        -3.5183   -0.2475   -2.7478 C.3       1 <0>         0.0574
     26 C17        -4.5450    0.2275   -1.7176 C.3       1 <0>        -0.1516
     27 C18        -5.9330    0.2637   -2.3602 C.3       1 <0>        -0.0056
     28 N7         -6.9188    0.7198   -1.3711 N.4       1 <0>        -0.5087
     29 C19        -8.2515    0.7546   -1.9881 C.3       1 <0>        -0.0076
     30 C20        -9.2781    1.2296   -0.9579 C.3       1 <0>        -0.0937
     31 C21       -10.6453    1.2654   -1.5908 C.ar      1 <0>        -0.1535
     32 C22       -11.0832    2.4143   -2.2233 C.ar      1 <0>        -0.0669
     33 C23       -12.3362    2.4497   -2.8039 C.ar      1 <0>        -0.1495
     34 C24       -13.1552    1.3311   -2.7523 C.ar      1 <0>         0.1483
     35 C25       -12.7133    0.1794   -2.1175 C.ar      1 <0>        -0.2071
     36 C26       -11.4574    0.1474   -1.5430 C.ar      1 <0>        -0.0656
     37 O4        -14.3885    1.3636   -3.3223 O.3       1 <0>        -0.3118
     38 C27       -15.1771    0.1754   -3.2307 C.3       1 <0>         0.0233
     39 H1          1.0039    1.9031    0.0027 H         1 <0>         0.0654
     40 H2         -0.5459    1.8868   -0.8726 H         1 <0>         0.0629
     41 H3         -0.5289    1.8773    0.9072 H         1 <0>         0.0860
     42 H4          0.5293   -0.3651    0.8851 H         1 <0>         0.1097
     43 H5         -1.0205   -0.3814    0.0098 H         1 <0>         0.1029
     44 H6         -2.4085   -0.9976   -4.6543 H         1 <0>         0.1724
     45 H7          4.6220   -1.4309   -2.3365 H         1 <0>         0.4301
     46 H8          6.0842   -1.4116   -1.5092 H         1 <0>         0.4213
     47 H9          5.0694   -3.4303   -5.5357 H         1 <0>         0.0726
     48 H10         5.9134   -3.0856   -7.0645 H         1 <0>         0.0803
     49 H11         5.3464   -1.7456   -6.0392 H         1 <0>         0.0650
     50 H12         2.5207   -4.1710   -8.1459 H         1 <0>         0.0690
     51 H13         4.2633   -4.5020   -8.2948 H         1 <0>         0.0784
     52 H14         3.4193   -4.8466   -6.7660 H         1 <0>         0.0766
     53 H15         4.0529   -0.9513   -8.0097 H         1 <0>         0.3824
     54 H16        -3.5089    0.4388   -3.5945 H         1 <0>         0.0805
     55 H17        -3.7852   -1.2465   -3.0928 H         1 <0>         0.0803
     56 H18        -4.5544   -0.4589   -0.8709 H         1 <0>         0.1007
     57 H19        -4.2781    1.2264   -1.3726 H         1 <0>         0.1011
     58 H20        -5.9236    0.9501   -3.2069 H         1 <0>         0.1380
     59 H21        -6.1999   -0.7352   -2.7052 H         1 <0>         0.1377
     60 H22        -6.9275    0.0844   -0.5873 H         1 <0>         0.4299
     61 H23        -8.2421    1.4410   -2.8348 H         1 <0>         0.1349
     62 H24        -8.5184   -0.2443   -2.3331 H         1 <0>         0.1340
     63 H25        -9.2876    0.5433   -0.1112 H         1 <0>         0.0942
     64 H26        -9.0112    2.2286   -0.6129 H         1 <0>         0.0951
     65 H27       -10.4453    3.2848   -2.2632 H         1 <0>         0.1315
     66 H28       -12.6781    3.3476   -3.2972 H         1 <0>         0.1382
     67 H29       -13.3491   -0.6927   -2.0760 H         1 <0>         0.1352
     68 H30       -11.1112   -0.7504   -1.0525 H         1 <0>         0.1269
     69 H31       -15.3455   -0.0689   -2.1819 H         1 <0>         0.0602
     70 H32       -16.1353    0.3363   -3.7247 H         1 <0>         0.1084
     71 H33       -14.6519   -0.6474   -3.7157 H         1 <0>         0.0594
     72 H34        -6.6717    1.6445   -1.0517 H         1 <0>         0.4301
@<TRIPOS>BOND
     1    1    2 1
     2    1   39 1
     3    1   40 1
     4    1   41 1
     5    2    3 1
     6    2   42 1
     7    2   43 1
     8    3   11 1
     9    3    4 1
    10    4    9 ar
    11    4    5 ar
    12    5    6 ar
    13    5   24 1
    14    6    7 ar
    15    6   44 1
    16    7    8 ar
    17    8    9 ar
    18    8   18 1
    19    9   10 1
    20   10   11 2
    21   11   12 1
    22   12   16 2
    23   12   13 1
    24   13   14 2
    25   13   17 1
    26   14   15 1
    27   15   16 1
    28   17   45 1
    29   17   46 1
    30   18   19 3
    31   19   20 1
    32   20   21 1
    33   20   22 1
    34   20   23 1
    35   21   47 1
    36   21   48 1
    37   21   49 1
    38   22   50 1
    39   22   51 1
    40   22   52 1
    41   23   53 1
    42   24   25 1
    43   25   26 1
    44   25   54 1
    45   25   55 1
    46   26   27 1
    47   26   56 1
    48   26   57 1
    49   27   28 1
    50   27   58 1
    51   27   59 1
    52   28   29 1
    53   28   60 1
    54   28   72 1
    55   29   30 1
    56   29   61 1
    57   29   62 1
    58   30   31 1
    59   30   63 1
    60   30   64 1
    61   31   36 ar
    62   31   32 ar
    63   32   33 ar
    64   32   65 1
    65   33   34 ar
    66   33   66 1
    67   34   35 ar
    68   34   37 1
    69   35   36 ar
    70   35   67 1
    71   36   68 1
    72   37   38 1
    73   38   69 1
    74   38   70 1
    75   38   71 1
@<TRIPOS>MOLECULE
ZINC03352596
   57    60     0     0     0
SMALL
USER_CHARGES
(3-carbamoyl-4,5,6,7-tetrahydrobenzothiophen-2-yl)carbamoylmethyl 2-acetylamino-4,5,6,7-tetrahydrobenzothiophene-3-carboxylate
@<TRIPOS>ATOM
      1 C1          1.2803    1.9798    0.0005 C.3       1 <0>        -0.1696
      2 C2         -0.0144    1.2086    0.0087 C.2       1 <0>         0.5076
      3 O1          0.0021   -0.0041    0.0020 O.2       1 <0>        -0.4990
      4 N1         -1.1906    1.8665    0.0178 N.am      1 <0>        -0.6237
      5 C3         -2.3814    1.1573    0.0196 C.2       1 <0>         0.0832
      6 C4         -3.6796    1.6504    0.0342 C.2       1 <0>        -0.2110
      7 C5         -4.7647    0.6835    0.0287 C.2       1 <0>        -0.0607
      8 C6         -4.3814   -0.6113    0.0205 C.2       1 <0>        -0.2062
      9 S1         -2.6118   -0.5600    0.0120 S.3       1 <0>         0.2490
     10 C7         -5.2706   -1.8165    0.0194 C.3       1 <0>        -0.0360
     11 C8         -6.6885   -1.3720    0.4069 C.3       1 <0>        -0.1154
     12 C9         -7.0628   -0.1397   -0.4218 C.3       1 <0>        -0.1185
     13 C10        -6.2399    1.0653    0.0371 C.3       1 <0>        -0.0645
     14 C11        -3.9451    3.0904    0.0500 C.2       1 <0>         0.5384
     15 O2         -4.0637    3.6985   -0.9967 O.2       1 <0>        -0.4888
     16 O3         -4.0581    3.7424    1.2254 O.3       1 <0>        -0.3231
     17 C12        -4.3216    5.1690    1.1651 C.3       1 <0>         0.0507
     18 C13        -4.4150    5.7222    2.5638 C.2       1 <0>         0.5103
     19 O4         -4.2734    4.9865    3.5175 O.2       1 <0>        -0.4697
     20 N2         -4.6559    7.0344    2.7549 N.am      1 <0>        -0.6168
     21 C14        -4.7418    7.5433    4.0419 C.2       1 <0>         0.0682
     22 C15        -4.9751    8.8528    4.4375 C.2       1 <0>        -0.2217
     23 C16        -5.0214    9.1253    5.8639 C.2       1 <0>        -0.0670
     24 C17        -4.8183    8.0539    6.6611 C.2       1 <0>        -0.2040
     25 S2         -4.5763    6.7000    5.5464 S.3       1 <0>         0.2334
     26 C18        -4.8033    8.0321    8.1584 C.3       1 <0>        -0.0371
     27 C19        -4.6815    9.4777    8.6620 C.3       1 <0>        -0.1142
     28 C20        -5.6977   10.3473    7.9160 C.3       1 <0>        -0.1200
     29 C21        -5.2726   10.5069    6.4553 C.3       1 <0>        -0.0612
     30 C22        -5.1717    9.9210    3.4526 C.2       1 <0>         0.5834
     31 O5         -6.2908   10.1783    3.0491 O.2       1 <0>        -0.5316
     32 N3         -4.1132   10.6180    2.9940 N.am      1 <0>        -0.8476
     33 H1          2.1183    1.2828   -0.0113 H         1 <0>         0.1063
     34 H2          1.3211    2.6119   -0.8866 H         1 <0>         0.0978
     35 H3          1.3381    2.6024    0.8933 H         1 <0>         0.0980
     36 H4         -1.2037    2.8364    0.0232 H         1 <0>         0.4190
     37 H5         -5.2844   -2.2617   -0.9754 H         1 <0>         0.0845
     38 H6         -4.9030   -2.5446    0.7425 H         1 <0>         0.0835
     39 H7         -7.3929   -2.1780    0.2017 H         1 <0>         0.0756
     40 H8         -6.7164   -1.1235    1.4678 H         1 <0>         0.0699
     41 H9         -6.8608   -0.3364   -1.4747 H         1 <0>         0.0683
     42 H10        -8.1231    0.0763   -0.2908 H         1 <0>         0.0718
     43 H11        -6.4050    1.9009   -0.6430 H         1 <0>         0.0730
     44 H12        -6.5401    1.3501    1.0455 H         1 <0>         0.0814
     45 H13        -3.5116    5.6659    0.6312 H         1 <0>         0.1112
     46 H14        -5.2620    5.3430    0.6421 H         1 <0>         0.1134
     47 H15        -4.7691    7.6228    1.9921 H         1 <0>         0.4215
     48 H16        -5.7288    7.5911    8.5286 H         1 <0>         0.0839
     49 H17        -3.9524    7.4478    8.5086 H         1 <0>         0.0821
     50 H18        -4.8881    9.5106    9.7317 H         1 <0>         0.0747
     51 H19        -3.6734    9.8467    8.4731 H         1 <0>         0.0683
     52 H20        -6.6789    9.8744    7.9580 H         1 <0>         0.0680
     53 H21        -5.7486   11.3292    8.3865 H         1 <0>         0.0710
     54 H22        -6.0648   11.0051    5.8964 H         1 <0>         0.0756
     55 H23        -4.3599   11.1005    6.4031 H         1 <0>         0.0771
     56 H24        -3.2213   10.4129    3.3156 H         1 <0>         0.4036
     57 H25        -4.2432   11.3247    2.3425 H         1 <0>         0.4040
@<TRIPOS>BOND
     1    1    2 1
     2    1   33 1
     3    1   34 1
     4    1   35 1
     5    2    3 2
     6    2    4 am
     7    4    5 1
     8    4   36 1
     9    5    9 1
    10    5    6 2
    11    6    7 1
    12    6   14 1
    13    7   13 1
    14    7    8 2
    15    8    9 1
    16    8   10 1
    17   10   11 1
    18   10   37 1
    19   10   38 1
    20   11   12 1
    21   11   39 1
    22   11   40 1
    23   12   13 1
    24   12   41 1
    25   12   42 1
    26   13   43 1
    27   13   44 1
    28   14   15 2
    29   14   16 1
    30   16   17 1
    31   17   18 1
    32   17   45 1
    33   17   46 1
    34   18   19 2
    35   18   20 am
    36   20   21 1
    37   20   47 1
    38   21   25 1
    39   21   22 2
    40   22   23 1
    41   22   30 1
    42   23   29 1
    43   23   24 2
    44   24   25 1
    45   24   26 1
    46   26   27 1
    47   26   48 1
    48   26   49 1
    49   27   28 1
    50   27   50 1
    51   27   51 1
    52   28   29 1
    53   28   52 1
    54   28   53 1
    55   29   54 1
    56   29   55 1
    57   30   31 2
    58   30   32 am
    59   32   56 1
    60   32   57 1
@<TRIPOS>MOLECULE
ZINC16072915
   49    51     0     0     0
SMALL
USER_CHARGES
2-chloro-5-[[[4-[(4-chlorophenoxy)methyl]benzoyl]amino]carbamoyl]benzenesulfonamide
@<TRIPOS>ATOM
      1 C1          2.2790   -4.8564    1.1554 C.ar      1 <0>        -0.0979
      2 C2          2.1141   -6.2261    1.1571 C.ar      1 <0>        -0.0861
      3 C3          2.0210   -6.9162   -0.0525 C.ar      1 <0>        -0.1197
      4 C4          2.0901   -6.2139   -1.2567 C.ar      1 <0>        -0.0539
      5 C5          2.2498   -4.8437   -1.2444 C.ar      1 <0>        -0.0992
      6 C6          2.3415   -4.1656   -0.0418 C.ar      1 <0>        -0.0653
      7 C7          2.5165   -2.6688   -0.0360 C.3       1 <0>         0.0949
      8 O1          1.2336   -2.0394   -0.0203 O.3       1 <0>        -0.3041
      9 C8          1.2132   -0.6803   -0.0132 C.ar      1 <0>         0.1346
     10 C9          0.0021   -0.0041    0.0020 C.ar      1 <0>        -0.1380
     11 C10        -0.0167    1.3772    0.0096 C.ar      1 <0>        -0.0690
     12 C11         1.1716    2.0862    0.0021 C.ar      1 <0>        -0.0729
     13 C12         2.3806    1.4134   -0.0132 C.ar      1 <0>        -0.0683
     14 C13         2.4034    0.0322   -0.0208 C.ar      1 <0>        -0.1981
     15 Cl1         1.1454    3.8219    0.0111 Cl        1 <0>        -0.0681
     16 C14         1.8494   -8.3847   -0.0582 C.2       1 <0>         0.5645
     17 O2          1.7681   -8.9830   -1.1132 O.2       1 <0>        -0.5301
     18 N1          1.7830   -9.0599    1.1063 N.am      1 <0>        -0.5163
     19 N2          1.6203  -10.4514    1.1009 N.am      1 <0>        -0.5157
     20 C15         1.5540  -11.1267    2.2654 C.2       1 <0>         0.5640
     21 O3          1.6352  -10.5283    3.3204 O.2       1 <0>        -0.5205
     22 C16         1.3824  -12.5945    2.2597 C.ar      1 <0>        -0.1444
     23 C17         1.2830  -13.2839    1.0494 C.ar      1 <0>        -0.0170
     24 C18         1.1279  -14.6539    1.0504 C.ar      1 <0>        -0.1298
     25 C19         1.0600  -15.3452    2.2490 C.ar      1 <0>         0.0778
     26 C20         1.1527  -14.6664    3.4525 C.ar      1 <0>        -0.6816
     27 C21         1.3133  -13.2966    3.4642 C.ar      1 <0>         0.0571
     28 S1          1.0659  -15.5545    4.9719 S.o2      1 <0>         2.6996
     29 O4          1.9694  -16.6452    4.8569 O.2       1 <0>        -0.9405
     30 O5          1.1633  -14.5908    6.0117 O.2       1 <0>        -0.9486
     31 N3         -0.4531  -16.2066    5.0717 N.pl3     1 <0>        -1.2421
     32 Cl2         0.8584  -17.0695    2.2423 Cl        1 <0>        -0.0192
     33 H1          2.3553   -4.3217    2.0906 H         1 <0>         0.1365
     34 H2          2.0614   -6.7637    2.0923 H         1 <0>         0.1319
     35 H3          2.0183   -6.7420   -2.1961 H         1 <0>         0.1440
     36 H4          2.3031   -4.2990   -2.1755 H         1 <0>         0.1372
     37 H5          3.0603   -2.3631   -0.9298 H         1 <0>         0.0788
     38 H6          3.0777   -2.3721    0.8501 H         1 <0>         0.0787
     39 H7         -0.9256   -0.5571    0.0083 H         1 <0>         0.1415
     40 H8         -0.9594    1.9041    0.0169 H         1 <0>         0.1416
     41 H9          3.3070    1.9685   -0.0191 H         1 <0>         0.1373
     42 H10         3.3473   -0.4926   -0.0323 H         1 <0>         0.1377
     43 H11         1.8478   -8.5825    1.9481 H         1 <0>         0.4346
     44 H12         1.5555  -10.9289    0.2590 H         1 <0>         0.4328
     45 H13         1.3317  -12.7455    0.1145 H         1 <0>         0.1481
     46 H14         1.0546  -15.1886    0.1149 H         1 <0>         0.1575
     47 H15         1.3852  -12.7683    4.4034 H         1 <0>         0.1720
     48 H16        -0.5930  -17.0391    5.5493 H         1 <0>         0.4257
     49 H17        -1.2028  -15.7559    4.6526 H         1 <0>         0.4183
@<TRIPOS>BOND
     1    1    6 ar
     2    1    2 ar
     3    1   33 1
     4    2    3 ar
     5    2   34 1
     6    3    4 ar
     7    3   16 1
     8    4    5 ar
     9    4   35 1
    10    5    6 ar
    11    5   36 1
    12    6    7 1
    13    7    8 1
    14    7   37 1
    15    7   38 1
    16    8    9 1
    17    9   14 ar
    18    9   10 ar
    19   10   11 ar
    20   10   39 1
    21   11   12 ar
    22   11   40 1
    23   12   13 ar
    24   12   15 1
    25   13   14 ar
    26   13   41 1
    27   14   42 1
    28   16   17 2
    29   16   18 am
    30   18   19 1
    31   18   43 1
    32   19   20 am
    33   19   44 1
    34   20   21 2
    35   20   22 1
    36   22   27 ar
    37   22   23 ar
    38   23   24 ar
    39   23   45 1
    40   24   25 ar
    41   24   46 1
    42   25   26 ar
    43   25   32 1
    44   26   27 ar
    45   26   28 1
    46   27   47 1
    47   28   29 2
    48   28   30 2
    49   28   31 1
    50   31   48 1
    51   31   49 1
@<TRIPOS>MOLECULE
ZINC20831450
   62    65     0     0     0
SMALL
USER_CHARGES
3-[[5-[(o-tolylamino)methyl]-4-phenyl-1,2,4-triazol-3-yl]sulfanyl]-N-(4-sulfamoylphenyl)propanamide
@<TRIPOS>ATOM
      1 C1          0.0107    1.5068    0.0088 C.3       1 <0>        -0.1093
      2 C2          0.0225   -0.0001    0.0001 C.ar      1 <0>        -0.1597
      3 C3          0.0164   -0.6846   -1.1996 C.ar      1 <0>        -0.0723
      4 C4          0.0321   -2.0672   -1.2086 C.ar      1 <0>        -0.1749
      5 C5          0.0433   -2.7695   -0.0171 C.ar      1 <0>        -0.0751
      6 C6          0.0442   -2.0915    1.1858 C.ar      1 <0>        -0.1973
      7 C7          0.0338   -0.7023    1.1984 C.ar      1 <0>         0.2237
      8 N1          0.0342   -0.0133    2.4133 N.pl3     1 <0>        -0.7526
      9 C8          0.0461   -0.7555    3.6763 C.3       1 <0>         0.2209
     10 C9          0.0440    0.2148    4.8293 C.2       1 <0>         0.1764
     11 N2          1.0924    0.7161    5.4190 N.2       1 <0>        -0.2548
     12 N3          0.7320    1.5123    6.3612 N.2       1 <0>        -0.2791
     13 C10        -0.5783    1.5568    6.4325 C.2       1 <0>         0.1681
     14 N4         -1.0603    0.7290    5.4558 N.pl3     1 <0>        -0.4102
     15 C11        -2.4046    0.4622    5.1584 C.ar      1 <0>         0.0956
     16 C12        -2.9382    0.8552    3.9386 C.ar      1 <0>        -0.0901
     17 C13        -4.2609    0.5855    3.6460 C.ar      1 <0>        -0.1042
     18 C14        -5.0566   -0.0644    4.5715 C.ar      1 <0>        -0.0971
     19 C15        -4.5293   -0.4520    5.7896 C.ar      1 <0>        -0.1042
     20 C16        -3.2057   -0.1905    6.0853 C.ar      1 <0>        -0.0969
     21 S1         -1.5345    2.5031    7.5704 S.3       1 <0>         0.0182
     22 C17        -0.2079    3.3052    8.5047 C.3       1 <0>        -0.0985
     23 C18        -0.8155    4.2052    9.5826 C.3       1 <0>        -0.1274
     24 C19         0.2890    4.8731   10.3605 C.2       1 <0>         0.5229
     25 O1          1.4480    4.6510   10.0804 O.2       1 <0>        -0.5054
     26 N5         -0.0111    5.7171   11.3675 N.am      1 <0>        -0.6896
     27 C20         1.0115    6.2618   12.1520 C.ar      1 <0>         0.2096
     28 C21         0.8022    6.4929   13.5053 C.ar      1 <0>        -0.1674
     29 C22         1.8158    7.0245   14.2784 C.ar      1 <0>        -0.0055
     30 C23         3.0336    7.3386   13.7035 C.ar      1 <0>        -0.6807
     31 C24         3.2431    7.1154   12.3550 C.ar      1 <0>         0.0077
     32 C25         2.2358    6.5778   11.5779 C.ar      1 <0>        -0.1464
     33 S2          4.3215    8.0240   14.6916 S.o2      1 <0>         2.6372
     34 O2          4.0603    7.6279   16.0310 O.2       1 <0>        -0.9874
     35 O3          5.5436    7.7219   14.0324 O.2       1 <0>        -0.9516
     36 N6          4.1521    9.6706   14.6433 N.pl3     1 <0>        -1.1627
     37 H1          0.0028    1.8794   -1.0262 H         1 <0>         0.0683
     38 H2          0.9085    1.8775    0.5251 H         1 <0>         0.0634
     39 H3         -0.8878    1.8634    0.5338 H         1 <0>         0.0594
     40 H4          0.0032   -0.1393   -2.1317 H         1 <0>         0.1200
     41 H5          0.0310   -2.5999   -2.1480 H         1 <0>         0.1178
     42 H6          0.0510   -3.8494   -0.0277 H         1 <0>         0.1197
     43 H7          0.0526   -2.6405    2.1158 H         1 <0>         0.1179
     44 H8          0.0256    1.0866    2.4218 H         1 <0>         0.4191
     45 H9         -0.8468   -1.3954    3.7340 H         1 <0>         0.0794
     46 H10         0.9494   -1.3813    3.7254 H         1 <0>         0.0982
     47 H11        -2.3186    1.3674    3.2174 H         1 <0>         0.1282
     48 H12        -4.6753    0.8865    2.6951 H         1 <0>         0.1363
     49 H13        -6.0918   -0.2699    4.3424 H         1 <0>         0.1348
     50 H14        -5.1531   -0.9594    6.5105 H         1 <0>         0.1376
     51 H15        -2.7943   -0.4938    7.0367 H         1 <0>         0.1320
     52 H16         0.4217    2.5383    8.9794 H         1 <0>         0.1100
     53 H17         0.4055    3.9125    7.8228 H         1 <0>         0.1101
     54 H18        -1.4452    4.9721    9.1078 H         1 <0>         0.1127
     55 H19        -1.4288    3.5979   10.2645 H         1 <0>         0.1126
     56 H20        -1.0599    5.9777   11.5726 H         1 <0>         0.4420
     57 H21        -0.1505    6.2527   13.9538 H         1 <0>         0.1380
     58 H22         1.6556    7.1994   15.3320 H         1 <0>         0.1452
     59 H23         4.1955    7.3614   11.9091 H         1 <0>         0.1462
     60 H24         2.4002    6.4031   10.5249 H         1 <0>         0.1497
     61 H25         4.9409   10.1383   15.2508 H         1 <0>         0.4137
     62 H26         3.1665    9.9497   15.0442 H         1 <0>         0.4081
@<TRIPOS>BOND
     1    1    2 1
     2    1   37 1
     3    1   38 1
     4    1   39 1
     5    2    7 ar
     6    2    3 ar
     7    3    4 ar
     8    3   40 1
     9    4    5 ar
    10    4   41 1
    11    5    6 ar
    12    5   42 1
    13    6    7 ar
    14    6   43 1
    15    7    8 1
    16    8    9 1
    17    8   44 1
    18    9   10 1
    19    9   45 1
    20    9   46 1
    21   10   14 1
    22   10   11 2
    23   11   12 1
    24   12   13 2
    25   13   14 1
    26   13   21 1
    27   14   15 1
    28   15   20 ar
    29   15   16 ar
    30   16   17 ar
    31   16   47 1
    32   17   18 ar
    33   17   48 1
    34   18   19 ar
    35   18   49 1
    36   19   20 ar
    37   19   50 1
    38   20   51 1
    39   21   22 1
    40   22   23 1
    41   22   52 1
    42   22   53 1
    43   23   24 1
    44   23   54 1
    45   23   55 1
    46   24   25 2
    47   24   26 am
    48   26   27 1
    49   26   56 1
    50   27   32 ar
    51   27   28 ar
    52   28   29 ar
    53   28   57 1
    54   29   30 ar
    55   29   58 1
    56   30   31 ar
    57   30   33 1
    58   31   32 ar
    59   31   59 1
    60   32   60 1
    61   33   34 2
    62   33   35 2
    63   33   36 1
    64   36   61 1
    65   36   62 1
@<TRIPOS>MOLECULE
ZINC31118192
   63    66     0     0     0
SMALL
USER_CHARGES
N-[3-[5-amino-4-cyano-1-(4-fluorophenyl)pyrazol-3-yl]propyl]-3-(1,3,4-trimethyl-6-oxo-7H-pyrazolo[3,4-b]pyridin-5-yl)propanamide
@<TRIPOS>ATOM
      1 C1          0.4063    3.8061   -8.5589 C.3       1 <0>        -0.1391
      2 C2         -0.6958    2.9721   -9.1596 C.2       1 <0>         0.0815
      3 C3         -0.9682    1.7343   -8.6690 C.2       1 <0>        -0.2403
      4 C4         -1.9950    0.9612   -9.2408 C.2       1 <0>         0.5587
      5 O1         -2.2293   -0.1510   -8.7979 O.2       1 <0>        -0.5339
      6 N1         -2.7259    1.4354  -10.2671 N.am      1 <0>        -0.6237
      7 H1         -3.5318    0.8229  -10.6976 H         1 <0>         0.4356
      8 C5         -2.4767    2.6780  -10.7843 C.2       1 <0>         0.3526
      9 C6         -1.4599    3.4668  -10.2414 C.2       1 <0>        -0.2680
     10 C7         -1.4399    4.6783  -10.9711 C.2       1 <0>         0.1397
     11 N2         -2.3719    4.6197  -11.8799 N.2       1 <0>        -0.2740
     12 N3         -3.0330    3.3893  -11.7887 N.pl3     1 <0>        -0.3804
     13 C8         -4.1408    2.9475  -12.6394 C.3       1 <0>         0.0893
     14 C9         -0.5031    5.8356  -10.7382 C.3       1 <0>        -0.0843
     15 C10        -0.1661    1.1875   -7.5163 C.3       1 <0>        -0.0389
     16 C11        -0.8876    1.4936   -6.2022 C.3       1 <0>        -0.1349
     17 C12        -0.0855    0.9467   -5.0496 C.2       1 <0>         0.5153
     18 O2          0.9602    0.3691   -5.2585 O.2       1 <0>        -0.5419
     19 N4         -0.5303    1.0997   -3.7865 N.am      1 <0>        -0.7445
     20 C13         0.2494    0.5681   -2.6659 C.3       1 <0>         0.1210
     21 C14        -0.4720    0.8742   -1.3519 C.3       1 <0>        -0.1235
     22 C15         0.3423    0.3190   -0.1816 C.3       1 <0>        -0.0451
     23 C16        -0.3684    0.6205    1.1126 C.2       1 <0>         0.1703
     24 C17        -1.3241   -0.2078    1.7459 C.2       1 <0>        -0.2637
     25 C18        -1.7229    0.4459    2.9088 C.2       1 <0>         0.4450
     26 N5         -1.0367    1.6096    2.9656 N.pl3     1 <0>        -0.3462
     27 N6         -0.2038    1.6873    1.8442 N.2       1 <0>        -0.2894
     28 C19        -1.1392    2.5731    3.9790 C.ar      1 <0>         0.1488
     29 C20        -2.3631    2.8124    4.5893 C.ar      1 <0>        -0.1210
     30 C21        -2.4611    3.7589    5.5903 C.ar      1 <0>        -0.1251
     31 C22        -1.3419    4.4762    5.9783 C.ar      1 <0>         0.0996
     32 C23        -0.1213    4.2423    5.3674 C.ar      1 <0>        -0.1269
     33 C24        -0.0182    3.2933    4.3694 C.ar      1 <0>        -0.0773
     34 F1         -1.4410    5.4056    6.9538 F         1 <0>        -0.1315
     35 N7         -2.6455   -0.0091    3.8313 N.pl3     1 <0>        -0.8596
     36 C25        -1.7924   -1.4782    1.2797 C.1       1 <0>         0.2940
     37 N8         -2.1640   -2.4860    0.9099 N.1       1 <0>        -0.4400
     38 H2          0.8789    3.2509   -7.7353 H         1 <0>         0.0846
     39 H3         -0.0142    4.7466   -8.1734 H         1 <0>         0.0840
     40 H4          1.1586    4.0296   -9.3296 H         1 <0>         0.0841
     41 H5         -4.3796    3.7353  -13.3690 H         1 <0>         0.1076
     42 H6         -5.0240    2.7454  -12.0157 H         1 <0>         0.0825
     43 H7         -3.8505    2.0300  -13.1723 H         1 <0>         0.0827
     44 H8         -0.7243    6.6370  -11.4585 H         1 <0>         0.0807
     45 H9          0.5356    5.4991  -10.8716 H         1 <0>         0.0882
     46 H10        -0.6369    6.2154   -9.7145 H         1 <0>         0.0878
     47 H11        -0.0567    0.0988   -7.6295 H         1 <0>         0.0854
     48 H12         0.8287    1.6569   -7.5064 H         1 <0>         0.0859
     49 H13        -0.9970    2.5823   -6.0889 H         1 <0>         0.0916
     50 H14        -1.8824    1.0242   -6.2121 H         1 <0>         0.0947
     51 H15        -1.4787    1.6237   -3.5971 H         1 <0>         0.4206
     52 H16         0.3588   -0.5206   -2.7791 H         1 <0>         0.0676
     53 H17         1.2442    1.0375   -2.6560 H         1 <0>         0.0696
     54 H18        -0.5814    1.9629   -1.2387 H         1 <0>         0.0778
     55 H19        -1.4668    0.4048   -1.3618 H         1 <0>         0.0737
     56 H20         0.4517   -0.7697   -0.2949 H         1 <0>         0.0918
     57 H21         1.3371    0.7884   -0.1717 H         1 <0>         0.0955
     58 H22        -3.2371    2.2564    4.2839 H         1 <0>         0.1418
     59 H23        -3.4123    3.9429    6.0677 H         1 <0>         0.1492
     60 H24         0.7505    4.8027    5.6713 H         1 <0>         0.1491
     61 H25         0.9337    3.1117    3.8926 H         1 <0>         0.1489
     62 H26        -2.8820    0.5976    4.7178 H         1 <0>         0.4292
     63 H27        -3.1435   -0.9781    3.6792 H         1 <0>         0.4477
@<TRIPOS>BOND
     1    1    2 1
     2    1   38 1
     3    1   39 1
     4    1   40 1
     5    2    9 1
     6    2    3 2
     7    3    4 1
     8    3   15 1
     9    4    5 2
    10    4    6 am
    11    6    7 1
    12    6    8 1
    13    8   12 1
    14    8    9 2
    15    9   10 1
    16   10   11 2
    17   10   14 1
    18   11   12 1
    19   12   13 1
    20   13   41 1
    21   13   42 1
    22   13   43 1
    23   14   44 1
    24   14   45 1
    25   14   46 1
    26   15   16 1
    27   15   47 1
    28   15   48 1
    29   16   17 1
    30   16   49 1
    31   16   50 1
    32   17   18 2
    33   17   19 am
    34   19   20 1
    35   19   51 1
    36   20   21 1
    37   20   52 1
    38   20   53 1
    39   21   22 1
    40   21   54 1
    41   21   55 1
    42   22   23 1
    43   22   56 1
    44   22   57 1
    45   23   27 2
    46   23   24 1
    47   24   25 2
    48   24   36 1
    49   25   26 1
    50   25   35 1
    51   26   27 1
    52   26   28 1
    53   28   33 ar
    54   28   29 ar
    55   29   30 ar
    56   29   58 1
    57   30   31 ar
    58   30   59 1
    59   31   32 ar
    60   31   34 1
    61   32   33 ar
    62   32   60 1
    63   33   61 1
    64   35   62 1
    65   35   63 1
    66   36   37 3
@<TRIPOS>MOLECULE
ZINC08845160
   56    59     0     0     0
SMALL
USER_CHARGES

@<TRIPOS>ATOM
      1 C1         -2.0207   -2.5164   -1.9934 C.3       1 <0>        -0.1181
      2 C2         -1.0978   -2.0195   -0.9106 C.ar      1 <0>        -0.0828
      3 C3         -0.2903   -0.9200   -1.1439 C.ar      1 <0>        -0.0927
      4 C4          0.5597   -0.4563   -0.1577 C.ar      1 <0>        -0.1040
      5 C5          0.6077   -1.0915    1.0726 C.ar      1 <0>         0.1277
      6 C6         -0.2073   -2.2036    1.3122 C.ar      1 <0>        -0.0561
      7 C7         -1.0651   -2.6591    0.3115 C.ar      1 <0>        -0.0874
      8 C8         -0.1630   -2.8892    2.6224 C.2       1 <0>         0.1112
      9 C9          0.8890   -3.5702    3.1464 C.2       1 <0>        -0.1826
     10 C10         0.4574   -4.0431    4.4064 C.2       1 <0>        -0.0353
     11 N1         -0.7858   -3.6347    4.5643 N.2       1 <0>        -0.1980
     12 N2         -1.1699   -2.9555    3.5426 N.pl3     1 <0>        -0.3745
     13 H1         -2.0459   -2.5519    3.4395 H         1 <0>         0.4537
     14 C11         1.5722   -4.7914    5.0149 C.2       1 <0>         0.6094
     15 O1          1.5325   -5.3315    6.1033 O.2       1 <0>        -0.5035
     16 N3          2.6384   -4.7931    4.1967 N.am      1 <0>        -0.5995
     17 C12         2.3073   -4.0429    2.9796 C.3       1 <0>         0.2644
     18 H2          2.9763   -3.1890    2.8731 H         1 <0>         0.1138
     19 C13         2.4154   -4.9394    1.7731 C.ar      1 <0>        -0.0596
     20 C14         3.0787   -4.4979    0.6429 C.ar      1 <0>        -0.1613
     21 C15         3.1793   -5.3205   -0.4674 C.ar      1 <0>         0.1135
     22 C16         2.6120   -6.5909   -0.4422 C.ar      1 <0>         0.1099
     23 C17         1.9488   -7.0279    0.6937 C.ar      1 <0>        -0.0813
     24 C18         1.8563   -6.2030    1.8007 C.ar      1 <0>        -0.0861
     25 Br1         1.1762   -8.7534    0.7329 Br        1 <0>        -0.0205
     26 O2          2.7077   -7.4019   -1.5299 O.3       1 <0>        -0.4727
     27 O3          3.8306   -4.8871   -1.5797 O.3       1 <0>        -0.3010
     28 C19         4.3876   -3.5719   -1.5343 C.3       1 <0>         0.0237
     29 C20         3.9235   -5.4390    4.4750 C.3       1 <0>         0.1437
     30 C21         3.8950   -6.8771    3.9535 C.3       1 <0>        -0.1493
     31 C22         5.2372   -7.5517    4.2441 C.3       1 <0>         0.0808
     32 O4          5.2106   -8.8948    3.7570 O.3       1 <0>        -0.5704
     33 O5          1.4431   -0.6369    2.0425 O.3       1 <0>        -0.4872
     34 C23         1.4356    0.7414   -0.4211 C.3       1 <0>        -0.1145
     35 H3         -2.9841   -2.0134   -1.9087 H         1 <0>         0.0742
     36 H4         -1.5841   -2.3032   -2.9691 H         1 <0>         0.0709
     37 H5         -2.1616   -3.5918   -1.8855 H         1 <0>         0.0697
     38 H6         -0.3243   -0.4220   -2.1017 H         1 <0>         0.1307
     39 H7         -1.6999   -3.5142    0.4914 H         1 <0>         0.1282
     40 H8          3.5182   -3.5115    0.6256 H         1 <0>         0.1413
     41 H9          1.3426   -6.5457    2.6867 H         1 <0>         0.1333
     42 H10         3.4917   -7.9679   -1.5307 H         1 <0>         0.3918
     43 H11         5.1172   -3.5140   -0.7265 H         1 <0>         0.0576
     44 H12         4.8776   -3.3518   -2.4828 H         1 <0>         0.1045
     45 H13         3.5931   -2.8466   -1.3589 H         1 <0>         0.0580
     46 H14         4.7222   -4.8881    3.9782 H         1 <0>         0.0892
     47 H15         4.1013   -5.4459    5.5503 H         1 <0>         0.0948
     48 H16         3.0964   -7.4280    4.4502 H         1 <0>         0.0779
     49 H17         3.7172   -6.8702    2.8781 H         1 <0>         0.0808
     50 H18         6.0358   -7.0008    3.7473 H         1 <0>         0.0461
     51 H19         5.4150   -7.5586    5.3195 H         1 <0>         0.0489
     52 H20         6.0310   -9.3841    3.9074 H         1 <0>         0.3813
     53 H21         1.0514    0.0369    2.6149 H         1 <0>         0.3907
     54 H22         0.9045    1.6496   -0.1361 H         1 <0>         0.0716
     55 H23         2.3515    0.6573    0.1639 H         1 <0>         0.0754
     56 H24         1.6843    0.7835   -1.4815 H         1 <0>         0.0699
@<TRIPOS>BOND
     1    1    2 1
     2    1   35 1
     3    1   36 1
     4    1   37 1
     5    2    7 ar
     6    2    3 ar
     7    3    4 ar
     8    3   38 1
     9    4    5 ar
    10    4   34 1
    11    5    6 ar
    12    5   33 1
    13    6    7 ar
    14    6    8 1
    15    7   39 1
    16    8   12 1
    17    8    9 2
    18    9   17 1
    19    9   10 1
    20   10   11 2
    21   10   14 1
    22   11   12 1
    23   12   13 1
    24   14   15 2
    25   14   16 am
    26   16   17 1
    27   16   29 1
    28   17   18 1
    29   17   19 1
    30   19   24 ar
    31   19   20 ar
    32   20   21 ar
    33   20   40 1
    34   21   22 ar
    35   21   27 1
    36   22   23 ar
    37   22   26 1
    38   23   24 ar
    39   23   25 1
    40   24   41 1
    41   26   42 1
    42   27   28 1
    43   28   43 1
    44   28   44 1
    45   28   45 1
    46   29   30 1
    47   29   46 1
    48   29   47 1
    49   30   31 1
    50   30   48 1
    51   30   49 1
    52   31   32 1
    53   31   50 1
    54   31   51 1
    55   32   52 1
    56   33   53 1
    57   34   54 1
    58   34   55 1
    59   34   56 1
@<TRIPOS>MOLECULE
ZINC04824628
   66    70     0     0     0
SMALL
USER_CHARGES
4-amino-1-[4-[2-hydroxy-3-(4-methyl-1-oxa-4-azoniacyclohex-4-yl)-propoxy]phenyl]amino-anthracene-9,10-dione
@<TRIPOS>ATOM
      1 C1          0.7841   -8.0230    4.5398 C.3       1 <0>        -0.0736
      2 N1          0.0877   -8.1495    3.2526 N.4       1 <0>        -0.2604
      3 C2          0.9804   -8.7837    2.2727 C.3       1 <0>        -0.0505
      4 C3          1.3823  -10.1723    2.7759 C.3       1 <0>         0.0375
      5 O1          0.2044  -10.9532    2.9960 O.3       1 <0>        -0.3550
      6 C4         -0.7089  -10.3645    3.9262 C.3       1 <0>         0.0357
      7 C5         -1.1147   -8.9763    3.4251 C.3       1 <0>        -0.0435
      8 C6         -0.2992   -6.8164    2.7719 C.3       1 <0>        -0.0402
      9 C7          0.9557   -5.9689    2.5533 C.3       1 <0>         0.0881
     10 H1          1.6478   -6.5053    1.9040 H         1 <0>         0.1328
     11 C8          0.5672   -4.6416    1.8989 C.3       1 <0>         0.0342
     12 O2          1.7485   -3.8998    1.5886 O.3       1 <0>        -0.3048
     13 C9          1.5783   -2.6868    0.9979 C.ar      1 <0>         0.0598
     14 C10         2.6831   -1.9145    0.6699 C.ar      1 <0>        -0.0928
     15 C11         2.5114   -0.6829    0.0697 C.ar      1 <0>        -0.1415
     16 C12         1.2319   -0.2171   -0.2053 C.ar      1 <0>         0.2070
     17 C13         0.1262   -0.9887    0.1288 C.ar      1 <0>        -0.1568
     18 C14         0.3002   -2.2227    0.7233 C.ar      1 <0>        -0.1571
     19 N2          1.0569    1.0306   -0.8128 N.pl3     1 <0>        -0.6841
     20 C15        -0.2192    1.4876   -1.1021 C.ar      1 <0>         0.1359
     21 C16        -0.8216    2.4514   -0.2863 C.ar      1 <0>        -0.0515
     22 C17        -2.0787    2.9049   -0.5570 C.ar      1 <0>        -0.1631
     23 C18        -2.7884    2.4246   -1.6628 C.ar      1 <0>         0.2785
     24 C19        -2.2094    1.4615   -2.4935 C.ar      1 <0>        -0.2139
     25 C20        -0.9094    0.9871   -2.2099 C.ar      1 <0>        -0.0772
     26 C21        -0.2968   -0.0278   -3.0821 C.2       1 <0>         0.4308
     27 O3          0.8935   -0.2663   -3.0073 O.2       1 <0>        -0.4084
     28 C22        -1.1465   -0.7547   -4.0504 C.ar      1 <0>        -0.1189
     29 C23        -0.6773   -1.9014   -4.6833 C.ar      1 <0>        -0.0711
     30 C24        -1.4860   -2.5681   -5.5862 C.ar      1 <0>        -0.0998
     31 C25        -2.7591   -2.1033   -5.8643 C.ar      1 <0>        -0.0991
     32 C26        -3.2414   -0.9648   -5.2438 C.ar      1 <0>        -0.0695
     33 C27        -2.4412   -0.2819   -4.3332 C.ar      1 <0>        -0.1187
     34 C28        -2.9394    0.9367   -3.6590 C.2       1 <0>         0.4440
     35 O4         -3.9396    1.4985   -4.0629 O.2       1 <0>        -0.4465
     36 N3         -4.0631    2.8984   -1.9305 N.pl3     1 <0>        -0.8470
     37 O5          1.5834   -5.7140    3.8114 O.3       1 <0>        -0.5395
     38 H2          0.1684   -7.4473    5.2309 H         1 <0>         0.1212
     39 H3          0.9650   -9.0148    4.9541 H         1 <0>         0.1168
     40 H4          1.7356   -7.5129    4.3896 H         1 <0>         0.1559
     41 H5          0.4633   -8.8785    1.3178 H         1 <0>         0.1379
     42 H6          1.8728   -8.1712    2.1440 H         1 <0>         0.1437
     43 H7          1.9345  -10.0750    3.7106 H         1 <0>         0.0828
     44 H8          2.0097  -10.6619    2.0310 H         1 <0>         0.1419
     45 H9         -0.2283  -10.2738    4.9003 H         1 <0>         0.0822
     46 H10        -1.5950  -10.9930    4.0147 H         1 <0>         0.1413
     47 H11        -1.7775   -8.5067    4.1520 H         1 <0>         0.1396
     48 H12        -1.6309   -9.0710    2.4698 H         1 <0>         0.1370
     49 H13        -0.9385   -6.3348    3.5118 H         1 <0>         0.1379
     50 H14        -0.8411   -6.9126    1.8310 H         1 <0>         0.1414
     51 H15        -0.0535   -4.0660    2.5855 H         1 <0>         0.0731
     52 H16         0.0100   -4.8376    0.9827 H         1 <0>         0.0765
     53 H17         3.6778   -2.2768    0.8837 H         1 <0>         0.1324
     54 H18         3.3716   -0.0821   -0.1862 H         1 <0>         0.1334
     55 H19        -0.8691   -0.6256   -0.0809 H         1 <0>         0.1214
     56 H20        -0.5592   -2.8250    0.9784 H         1 <0>         0.1198
     57 H21         1.8286    1.5760   -1.0317 H         1 <0>         0.4133
     58 H22        -0.2872    2.8370    0.5693 H         1 <0>         0.1410
     59 H23        -2.5297    3.6456    0.0867 H         1 <0>         0.1412
     60 H24         0.3157   -2.2693   -4.4713 H         1 <0>         0.1406
     61 H25        -1.1211   -3.4581   -6.0772 H         1 <0>         0.1376
     62 H26        -3.3807   -2.6329   -6.5711 H         1 <0>         0.1388
     63 H27        -4.2359   -0.6069   -5.4659 H         1 <0>         0.1432
     64 H28        -4.6517    2.4009   -2.5195 H         1 <0>         0.4138
     65 H29        -4.3666    3.7276   -1.5289 H         1 <0>         0.4050
     66 H30         1.0241   -5.2385    4.4408 H         1 <0>         0.3897
@<TRIPOS>BOND
     1    1    2 1
     2    1   38 1
     3    1   39 1
     4    1   40 1
     5    2    7 1
     6    2    3 1
     7    2    8 1
     8    3    4 1
     9    3   41 1
    10    3   42 1
    11    4    5 1
    12    4   43 1
    13    4   44 1
    14    5    6 1
    15    6    7 1
    16    6   45 1
    17    6   46 1
    18    7   47 1
    19    7   48 1
    20    8    9 1
    21    8   49 1
    22    8   50 1
    23    9   10 1
    24    9   11 1
    25    9   37 1
    26   11   12 1
    27   11   51 1
    28   11   52 1
    29   12   13 1
    30   13   18 ar
    31   13   14 ar
    32   14   15 ar
    33   14   53 1
    34   15   16 ar
    35   15   54 1
    36   16   17 ar
    37   16   19 1
    38   17   18 ar
    39   17   55 1
    40   18   56 1
    41   19   20 1
    42   19   57 1
    43   20   25 ar
    44   20   21 ar
    45   21   22 ar
    46   21   58 1
    47   22   23 ar
    48   22   59 1
    49   23   24 ar
    50   23   36 1
    51   24   34 1
    52   24   25 ar
    53   25   26 1
    54   26   27 2
    55   26   28 1
    56   28   33 ar
    57   28   29 ar
    58   29   30 ar
    59   29   60 1
    60   30   31 ar
    61   30   61 1
    62   31   32 ar
    63   31   62 1
    64   32   33 ar
    65   32   63 1
    66   33   34 1
    67   34   35 2
    68   36   64 1
    69   36   65 1
    70   37   66 1
@<TRIPOS>MOLECULE
ZINC14129546
   65    68     0     0     0
SMALL
USER_CHARGES
2-[[(2R)-2-[[1-[(3R)-1,1-dioxothiolan-3-yl]-3,5-dimethyl-pyrazol-4-yl]methyl-methyl-amino]propanoyl]amino]-5,6-dihydro-4H-cyclopenta[d]thiophene-3-carboxamide
@<TRIPOS>ATOM
      1 C1          1.5144    6.2447   -2.8949 C.3       1 <0>        -0.0925
      2 C2          1.7225    5.2987   -1.7405 C.2       1 <0>         0.1072
      3 C3          2.3447    5.6099   -0.5270 C.2       1 <0>        -0.3162
      4 C4          2.3348    4.4975    0.2433 C.2       1 <0>         0.1428
      5 N1          1.7280    3.5171   -0.4579 N.pl3     1 <0>        -0.3423
      6 N2          1.3574    4.0429   -1.7023 N.2       1 <0>        -0.2670
      7 C5          1.5022    2.1436   -0.0008 C.3       1 <0>         0.1531
      8 H1          1.9114    2.0177    1.0016 H         1 <0>         0.1322
      9 C6          2.1799    1.1570   -0.9661 C.3       1 <0>        -0.1357
     10 C7          1.6864   -0.2822   -0.6821 C.3       1 <0>        -0.5763
     11 S1          0.0021   -0.0041    0.0020 S.o2      1 <0>         2.3804
     12 O1         -0.0359   -0.4743    1.3424 O.2       1 <0>        -0.9187
     13 O2         -0.9605   -0.4743   -0.9315 O.2       1 <0>        -0.9152
     14 C8         -0.0229    1.8383    0.0121 C.3       1 <0>        -0.6014
     15 C9          2.9007    4.3752    1.6346 C.3       1 <0>        -0.1228
     16 C10         2.9237    6.9478   -0.1450 C.3       1 <0>         0.0881
     17 C11         4.4630    6.9732   -2.0138 C.3       1 <0>        -0.0649
     18 C12         4.9962    8.1901    0.0104 C.3       1 <0>         0.0158
     19 H2          4.8698    8.1983    1.0930 H         1 <0>         0.1683
     20 C13         4.3714    9.4531   -0.5857 C.3       1 <0>        -0.1823
     21 C14         6.4652    8.1506   -0.3237 C.2       1 <0>         0.5007
     22 O3          6.9164    7.2260   -0.9660 O.2       1 <0>        -0.4924
     23 N3          7.2775    9.1427    0.0914 N.am      1 <0>        -0.5903
     24 C15         8.6292    9.1063   -0.2159 C.2       1 <0>         0.0260
     25 C16         9.6123   10.0220    0.1178 C.2       1 <0>        -0.1754
     26 C17        10.9760    9.7460   -0.3326 C.2       1 <0>        -0.0993
     27 C18        11.1256    8.6101   -1.0375 C.2       1 <0>        -0.2077
     28 S2          9.4984    7.9013   -1.1035 S.3       1 <0>         0.2693
     29 C19        12.5517    8.3970   -1.4677 C.3       1 <0>        -0.0382
     30 C20        13.2186    9.7807   -1.3042 C.3       1 <0>        -0.1161
     31 C21        12.3408   10.4255   -0.2131 C.3       1 <0>        -0.0637
     32 C22         9.2978   11.2249    0.8951 C.2       1 <0>         0.5751
     33 O4          9.3552   11.1963    2.1105 O.2       1 <0>        -0.5255
     34 N4          8.9451   12.3621    0.2637 N.am      1 <0>        -0.8455
     35 H3          2.3714    6.1925   -3.5665 H         1 <0>         0.0862
     36 H4          0.6109    5.9641   -3.4363 H         1 <0>         0.0904
     37 H5          1.4104    7.2618   -2.5170 H         1 <0>         0.0817
     38 H6          3.2605    1.2024   -0.8304 H         1 <0>         0.1041
     39 H7          1.9325    1.4285   -1.9923 H         1 <0>         0.1055
     40 H8          2.3258   -0.7722    0.0522 H         1 <0>         0.1485
     41 H9          1.6387   -0.8659   -1.6014 H         1 <0>         0.1543
     42 H10        -0.5111    2.2308   -0.8799 H         1 <0>         0.1554
     43 H11        -0.4939    2.2211    0.9175 H         1 <0>         0.1503
     44 H12         3.9442    4.0656    1.5766 H         1 <0>         0.0958
     45 H13         2.8351    5.3389    2.1395 H         1 <0>         0.0956
     46 H14         2.3319    3.6325    2.1942 H         1 <0>         0.0917
     47 H15         2.3689    7.7405   -0.6470 H         1 <0>         0.1408
     48 H16         2.8505    7.0805    0.9344 H         1 <0>         0.1330
     49 H17         3.9411    7.8285   -2.4430 H         1 <0>         0.1232
     50 H18         5.5173    7.0165   -2.2869 H         1 <0>         0.1404
     51 H19         4.0260    6.0511   -2.3972 H         1 <0>         0.1252
     52 H20         4.4978    9.4449   -1.6683 H         1 <0>         0.0945
     53 H21         3.3089    9.4817   -0.3441 H         1 <0>         0.1040
     54 H22         4.8625   10.3327   -0.1692 H         1 <0>         0.1086
     55 H23         6.9167    9.8821    0.6051 H         1 <0>         0.4261
     56 H24        12.5909    8.0768   -2.5089 H         1 <0>         0.0850
     57 H25        13.0371    7.6627   -0.8248 H         1 <0>         0.0915
     58 H26        13.1684   10.3500   -2.2323 H         1 <0>         0.0805
     59 H27        14.2498    9.6792   -0.9658 H         1 <0>         0.0901
     60 H28        12.2455   11.4968   -0.3900 H         1 <0>         0.0762
     61 H29        12.7678   10.2431    0.7730 H         1 <0>         0.0867
     62 H30         8.8993   12.3849   -0.7049 H         1 <0>         0.4045
     63 H31         8.7370   13.1579    0.7780 H         1 <0>         0.4079
     64 N5          4.3476    6.9815   -0.5403 N.4       1 <0>        -0.3798
     65 H32         4.8179    6.1499   -0.1642 H         1 <0>         0.4326
@<TRIPOS>BOND
     1    1    2 1
     2    1   35 1
     3    1   36 1
     4    1   37 1
     5    2    6 2
     6    2    3 1
     7    3    4 2
     8    3   16 1
     9    4    5 1
    10    4   15 1
    11    5    6 1
    12    5    7 1
    13    7    8 1
    14    7   14 1
    15    7    9 1
    16    9   10 1
    17    9   38 1
    18    9   39 1
    19   10   11 1
    20   10   40 1
    21   10   41 1
    22   11   12 2
    23   11   13 2
    24   11   14 1
    25   14   42 1
    26   14   43 1
    27   15   44 1
    28   15   45 1
    29   15   46 1
    30   16   47 1
    31   16   48 1
    32   16   64 1
    33   17   49 1
    34   17   50 1
    35   17   51 1
    36   17   64 1
    37   18   19 1
    38   18   20 1
    39   18   21 1
    40   18   64 1
    41   20   52 1
    42   20   53 1
    43   20   54 1
    44   21   22 2
    45   21   23 am
    46   23   24 1
    47   23   55 1
    48   24   28 1
    49   24   25 2
    50   25   26 1
    51   25   32 1
    52   26   31 1
    53   26   27 2
    54   27   28 1
    55   27   29 1
    56   29   30 1
    57   29   56 1
    58   29   57 1
    59   30   31 1
    60   30   58 1
    61   30   59 1
    62   31   60 1
    63   31   61 1
    64   32   33 2
    65   32   34 am
    66   34   62 1
    67   34   63 1
    68   64   65 1
@<TRIPOS>MOLECULE
ZINC14156527
   63    65     0     0     0
SMALL
USER_CHARGES

@<TRIPOS>ATOM
      1 C1          6.0522   -2.8020    3.4843 C.3       1 <0>        -0.1038
      2 C2          4.8018   -3.5276    3.0589 C.ar      1 <0>         0.2204
      3 C3          4.8835   -4.6559    2.2578 C.ar      1 <0>        -0.2679
      4 C4          3.7089   -5.2930    1.8894 C.ar      1 <0>         0.2179
      5 N1          2.5526   -4.8083    2.3107 N.ar      1 <0>        -0.5577
      6 C5          2.5096   -3.7279    3.0753 C.ar      1 <0>         0.5997
      7 N2          3.6131   -3.0988    3.4497 N.ar      1 <0>        -0.5306
      8 N3          1.2782   -3.2463    3.4990 N.pl3     1 <0>        -0.7005
      9 C6          1.2187   -2.1986    4.3782 C.2       1 <0>         0.7337
     10 N4          1.2925   -2.4223    5.6789 N.2       1 <0>        -0.5898
     11 C7          1.3479   -3.6798    6.1408 C.2       1 <0>         0.5358
     12 S1          2.6923   -4.6712    5.7655 S.2       1 <0>        -0.5683
     13 N5          0.3452   -4.1634    6.9005 N.pl3     1 <0>        -0.5929
     14 C8          0.4470   -5.4415    7.4634 C.ar      1 <0>         0.1804
     15 C9          1.6763   -5.9067    7.9103 C.ar      1 <0>        -0.1897
     16 C10         1.7779   -7.1716    8.4680 C.ar      1 <0>         0.1599
     17 C11         0.6487   -7.9741    8.5797 C.ar      1 <0>         0.0377
     18 C12        -0.5815   -7.5075    8.1320 C.ar      1 <0>         0.1564
     19 C13        -0.6824   -6.2404    7.5794 C.ar      1 <0>        -0.2391
     20 O1         -1.6870   -8.2920    8.2409 O.3       1 <0>        -0.2966
     21 C14        -2.9181   -7.7485    7.7603 C.3       1 <0>         0.0247
     22 O2          0.7477   -9.2170    9.1271 O.3       1 <0>        -0.3111
     23 C15         0.5615   -9.3203   10.5401 C.3       1 <0>         0.0350
     24 O3          2.9822   -7.6273    8.9054 O.3       1 <0>        -0.2963
     25 C16         4.1002   -6.7495    8.7589 C.3       1 <0>         0.0256
     26 N6          1.0831   -0.9229    3.9116 N.pl3     1 <0>        -0.6846
     27 C17         0.9417   -0.6800    2.4738 C.3       1 <0>         0.1225
     28 C18         0.7210    0.8140    2.2283 C.3       1 <0>        -0.0739
     29 C19         0.7717    1.0927    0.7481 C.2       1 <0>         0.0290
     30 C20         1.8837    1.3204    0.0234 C.2       1 <0>         0.0458
     31 N7          1.4796    1.5251   -1.2682 N.pl3     1 <0>        -0.5085
     32 H1          2.0529    1.7138   -2.0276 H         1 <0>         0.4699
     33 C21         0.1338    1.4153   -1.2879 C.cat     1 <0>         0.3131
     34 N8         -0.2822    1.1517   -0.0794 N.pl3     1 <0>        -0.4740
     35 C22         3.7488   -6.5227    1.0191 C.3       1 <0>        -0.1084
     36 H2          6.3992   -3.2037    4.4364 H         1 <0>         0.0877
     37 H3          6.8261   -2.9381    2.7289 H         1 <0>         0.0795
     38 H4          5.8358   -1.7395    3.5954 H         1 <0>         0.0765
     39 H5          5.8413   -5.0301    1.9277 H         1 <0>         0.1432
     40 H6          0.4601   -3.6522    3.1721 H         1 <0>         0.4279
     41 H7         -0.4470   -3.6261    7.0574 H         1 <0>         0.4110
     42 H8          2.5537   -5.2831    7.8232 H         1 <0>         0.1674
     43 H9         -1.6391   -5.8760    7.2355 H         1 <0>         0.1362
     44 H10        -2.8245   -7.5199    6.6986 H         1 <0>         0.0557
     45 H11        -3.7176   -8.4748    7.9065 H         1 <0>         0.1058
     46 H12        -3.1513   -6.8361    8.3092 H         1 <0>         0.0557
     47 H13        -0.4345   -8.9633   10.8024 H         1 <0>         0.0446
     48 H14         0.6662  -10.3614   10.8453 H         1 <0>         0.0951
     49 H15         1.3105   -8.7149   11.0506 H         1 <0>         0.0456
     50 H16         4.2416   -6.5141    7.7041 H         1 <0>         0.0659
     51 H17         3.9155   -5.8301    9.3147 H         1 <0>         0.0534
     52 H18         4.9962   -7.2345    9.1463 H         1 <0>         0.1029
     53 H19         1.0804   -0.1773    4.5320 H         1 <0>         0.4263
     54 H20         1.8471   -1.0028    1.9600 H         1 <0>         0.0810
     55 H21         0.0882   -1.2408    2.0928 H         1 <0>         0.0776
     56 H22        -0.2533    1.1065    2.6199 H         1 <0>         0.1092
     57 H23         1.5013    1.3842    2.7323 H         1 <0>         0.1251
     58 H24         2.8992    1.3383    0.3908 H         1 <0>         0.2285
     59 H25        -0.4939    1.5237   -2.1600 H         1 <0>         0.2686
     60 H26         3.8163   -7.4106    1.6477 H         1 <0>         0.0884
     61 H27         2.8412   -6.5716    0.4175 H         1 <0>         0.0797
     62 H28         4.6177   -6.4753    0.3628 H         1 <0>         0.0820
     63 H29        -1.2077    1.0210    0.1799 H         1 <0>         0.4658
@<TRIPOS>BOND
     1    1    2 1
     2    1   36 1
     3    1   37 1
     4    1   38 1
     5    2    7 ar
     6    2    3 ar
     7    3    4 ar
     8    3   39 1
     9    4    5 ar
    10    4   35 1
    11    5    6 ar
    12    6    7 ar
    13    6    8 1
    14    8    9 1
    15    8   40 1
    16    9   10 2
    17    9   26 1
    18   10   11 1
    19   11   12 2
    20   11   13 1
    21   13   14 1
    22   13   41 1
    23   14   19 ar
    24   14   15 ar
    25   15   16 ar
    26   15   42 1
    27   16   17 ar
    28   16   24 1
    29   17   18 ar
    30   17   22 1
    31   18   19 ar
    32   18   20 1
    33   19   43 1
    34   20   21 1
    35   21   44 1
    36   21   45 1
    37   21   46 1
    38   22   23 1
    39   23   47 1
    40   23   48 1
    41   23   49 1
    42   24   25 1
    43   25   50 1
    44   25   51 1
    45   25   52 1
    46   26   27 1
    47   26   53 1
    48   27   28 1
    49   27   54 1
    50   27   55 1
    51   28   29 1
    52   28   56 1
    53   28   57 1
    54   29   34 1
    55   29   30 2
    56   30   31 1
    57   30   58 1
    58   31   32 1
    59   31   33 1
    60   33   34 2
    61   33   59 1
    62   34   63 1
    63   35   60 1
    64   35   61 1
    65   35   62 1
@<TRIPOS>MOLECULE
ZINC39693424
   69    71     0     0     0
SMALL
USER_CHARGES

@<TRIPOS>ATOM
      1 C1          0.5668   -5.0723   -1.0738 C.3       1 <0>        -0.1873
      2 C2          0.0369   -5.0852   -2.5091 C.3       1 <0>         0.1351
      3 C3          0.5272   -6.3468   -3.2224 C.3       1 <0>        -0.1858
      4 C4         -1.4929   -5.0732   -2.4881 C.3       1 <0>        -0.1429
      5 O1          0.5128   -3.9302   -3.2030 O.3       1 <0>        -0.3552
      6 C5          1.8474   -3.7890   -3.3113 C.2       1 <0>         0.6541
      7 O2          2.5877   -4.6236   -2.8299 O.2       1 <0>        -0.5617
      8 N1          2.3621   -2.7219   -3.9538 N.am      1 <0>        -0.7133
      9 C6          3.8143   -2.5682   -4.0717 C.3       1 <0>         0.1288
     10 C7          4.1305   -1.2833   -4.8398 C.3       1 <0>         0.1041
     11 N2          5.5826   -1.1296   -4.9576 N.am      1 <0>        -0.7244
     12 C8          6.0974   -0.0625   -5.6001 C.2       1 <0>         0.5229
     13 O3          5.3584    0.7705   -6.0807 O.2       1 <0>        -0.5156
     14 C9          7.5911    0.0956   -5.7214 C.3       1 <0>        -0.1131
     15 H1          8.0928   -0.3943   -4.8869 H         1 <0>         0.1151
     16 C10         7.9712    1.5924   -5.7738 C.3       1 <0>         0.1169
     17 N3          9.0948    1.6597   -6.7377 N.am      1 <0>        -0.6191
     18 C11         8.7212    0.7030   -7.8069 C.3       1 <0>         0.0894
     19 C12         8.0842   -0.4842   -7.0577 C.3       1 <0>        -0.0722
     20 C13         6.9106   -1.0429   -7.8565 C.3       1 <0>        -0.1490
     21 C14         7.4328   -1.6661   -9.1542 C.3       1 <0>        -0.0079
     22 N4          8.3874   -2.7349   -8.8365 N.4       1 <0>        -0.5055
     23 C15         9.5572   -2.1736   -8.1499 C.3       1 <0>        -0.0117
     24 C16         9.1249   -1.5719   -6.8098 C.3       1 <0>        -0.1368
     25 C17        10.2057    2.4188   -6.6596 C.2       1 <0>         0.5864
     26 O4         10.4329    3.0621   -5.6534 O.2       1 <0>        -0.5025
     27 C18        11.1473    2.4692   -7.7968 C.ar      1 <0>        -0.1479
     28 C19        10.7191    2.1125   -9.0775 C.ar      1 <0>        -0.0479
     29 C20        11.6017    2.1613  -10.1349 C.ar      1 <0>        -0.1615
     30 C21        12.9127    2.5637   -9.9291 C.ar      1 <0>         0.1849
     31 C22        13.3429    2.9188   -8.6599 C.ar      1 <0>        -0.2220
     32 C23        12.4669    2.8791   -7.5962 C.ar      1 <0>         0.0187
     33 C24        14.7693    3.3546   -8.4438 C.3       1 <0>         0.5126
     34 F1         14.9640    3.6597   -7.0924 F         1 <0>        -0.1667
     35 F2         15.6345    2.3208   -8.8178 F         1 <0>        -0.1683
     36 F3         15.0334    4.4878   -9.2205 F         1 <0>        -0.1655
     37 F4         13.7739    2.6093  -10.9690 F         1 <0>        -0.1095
     38 H2          1.6566   -5.0808   -1.0888 H         1 <0>         0.0857
     39 H3          0.2174   -4.1735   -0.5657 H         1 <0>         0.0612
     40 H4          0.2037   -5.9533   -0.5446 H         1 <0>         0.0739
     41 H5          0.1642   -7.2278   -2.6931 H         1 <0>         0.0738
     42 H6          0.1498   -6.3560   -4.2449 H         1 <0>         0.0596
     43 H7          1.6171   -6.3554   -3.2374 H         1 <0>         0.0851
     44 H8         -1.8423   -4.1744   -1.9799 H         1 <0>         0.0687
     45 H9         -1.8704   -5.0824   -3.5106 H         1 <0>         0.0677
     46 H10        -1.8560   -5.9542   -1.9588 H         1 <0>         0.0842
     47 H11         1.7711   -2.0556   -4.3382 H         1 <0>         0.4110
     48 H12         4.2559   -2.5147   -3.0766 H         1 <0>         0.0801
     49 H13         4.2278   -3.4227   -4.6073 H         1 <0>         0.0757
     50 H14         3.6888   -1.3367   -5.8348 H         1 <0>         0.0818
     51 H15         3.7169   -0.4287   -4.3041 H         1 <0>         0.0848
     52 H16         6.1736   -1.7958   -4.5733 H         1 <0>         0.4046
     53 H17         7.1292    2.1860   -6.1297 H         1 <0>         0.1023
     54 H18         8.2923    1.9376   -4.7911 H         1 <0>         0.1013
     55 H19         8.0001    1.1557   -8.4874 H         1 <0>         0.0944
     56 H20         9.6070    0.3766   -8.3519 H         1 <0>         0.0933
     57 H21         6.3990   -1.8041   -7.2675 H         1 <0>         0.0984
     58 H22         6.2156   -0.2375   -8.0937 H         1 <0>         0.1286
     59 H23         6.5981   -2.0810   -9.7192 H         1 <0>         0.1409
     60 H24         7.9297   -0.9007   -9.7502 H         1 <0>         0.1326
     61 H25         7.9423   -3.4149   -8.2384 H         1 <0>         0.4295
     62 H26        10.2886   -2.9625   -7.9747 H         1 <0>         0.1419
     63 H27        10.0036   -1.3961   -8.7699 H         1 <0>         0.1314
     64 H28         9.9910   -1.1394   -6.3088 H         1 <0>         0.1202
     65 H29         8.6934   -2.3523   -6.1829 H         1 <0>         0.1001
     66 H30         9.6984    1.7986   -9.2389 H         1 <0>         0.1524
     67 H31        11.2717    1.8853  -11.1256 H         1 <0>         0.1588
     68 H32        12.8019    3.1603   -6.6087 H         1 <0>         0.1653
     69 H33         8.6836   -3.1842   -9.6900 H         1 <0>         0.4352
@<TRIPOS>BOND
     1    1    2 1
     2    1   38 1
     3    1   39 1
     4    1   40 1
     5    2    3 1
     6    2    4 1
     7    2    5 1
     8    3   41 1
     9    3   42 1
    10    3   43 1
    11    4   44 1
    12    4   45 1
    13    4   46 1
    14    5    6 1
    15    6    7 2
    16    6    8 am
    17    8    9 1
    18    8   47 1
    19    9   10 1
    20    9   48 1
    21    9   49 1
    22   10   11 1
    23   10   50 1
    24   10   51 1
    25   11   12 am
    26   11   52 1
    27   12   13 2
    28   12   14 1
    29   14   15 1
    30   14   19 1
    31   14   16 1
    32   16   17 1
    33   16   53 1
    34   16   54 1
    35   17   18 1
    36   17   25 am
    37   18   19 1
    38   18   55 1
    39   18   56 1
    40   19   24 1
    41   19   20 1
    42   20   21 1
    43   20   57 1
    44   20   58 1
    45   21   22 1
    46   21   59 1
    47   21   60 1
    48   22   23 1
    49   22   61 1
    50   22   69 1
    51   23   24 1
    52   23   62 1
    53   23   63 1
    54   24   64 1
    55   24   65 1
    56   25   26 2
    57   25   27 1
    58   27   32 ar
    59   27   28 ar
    60   28   29 ar
    61   28   66 1
    62   29   30 ar
    63   29   67 1
    64   30   31 ar
    65   30   37 1
    66   31   32 ar
    67   31   33 1
    68   32   68 1
    69   33   34 1
    70   33   35 1
    71   33   36 1
@<TRIPOS>MOLECULE
ZINC14538833
   69    71     0     0     0
SMALL
USER_CHARGES

@<TRIPOS>ATOM
      1 C1         -0.0187    1.5258    0.0104 C.3       1 <0>        -0.1617
      2 C2          0.0021   -0.0041    0.0020 C.3       1 <0>        -0.0796
      3 C3         -1.4117   -0.5257    0.0127 C.cat     1 <0>         0.3417
      4 N1         -2.1171   -0.7893    1.0785 N.pl3     1 <0>        -0.4754
      5 C4         -3.3274   -1.2341    0.7091 C.2       1 <0>         0.0657
      6 H1         -1.8887   -0.6843   -2.0038 H         1 <0>         0.4648
      7 C5         -3.3737   -1.2466   -0.6367 C.2       1 <0>         0.0271
      8 N2         -2.1606   -0.7922   -1.0790 N.pl3     1 <0>        -0.4993
      9 C6         -4.5392   -1.6733   -1.4915 C.3       1 <0>         0.1900
     10 N3         -5.5147   -0.5829   -1.5667 N.pl3     1 <0>        -0.7510
     11 C7         -6.6875   -0.7447   -2.3085 C.ar      1 <0>         0.1826
     12 C8         -6.9309   -1.9396   -2.9690 C.ar      1 <0>        -0.1104
     13 C9         -8.1033   -2.0960   -3.7077 C.ar      1 <0>        -0.1011
     14 C10        -9.0241   -1.0489   -3.7773 C.ar      1 <0>        -0.0034
     15 C11        -8.7725    0.1362   -3.1169 C.ar      1 <0>        -0.6349
     16 C12        -7.6130    0.2896   -2.3798 C.ar      1 <0>        -0.0600
     17 S1         -9.9364    1.4560   -3.2073 S.o2      1 <0>         2.6888
     18 O1         -9.2143    2.6527   -2.9512 O.2       1 <0>        -0.9486
     19 O2        -10.6836    1.2575   -4.3996 O.2       1 <0>        -0.9398
     20 N4        -10.9944    1.2629   -1.9480 N.pl3     1 <0>        -1.0022
     21 C13       -10.7139    1.8882   -0.6532 C.3       1 <0>         0.0913
     22 C14       -12.2108    0.4668   -2.1288 C.3       1 <0>         0.0775
     23 C15        -8.3702   -3.3666   -4.4153 C.2       1 <0>         0.5570
     24 O3         -9.3927   -3.5009   -5.0586 O.2       1 <0>        -0.5144
     25 N5         -7.4796   -4.3759   -4.3470 N.am      1 <0>        -0.7194
     26 C16        -7.7440   -5.6348   -5.0481 C.3       1 <0>         0.1880
     27 H2         -8.2660   -5.4278   -5.9823 H         1 <0>         0.1015
     28 C17        -8.6119   -6.5363   -4.1678 C.3       1 <0>        -0.1597
     29 C18        -6.4393   -6.3282   -5.3448 C.ar      1 <0>        -0.1329
     30 C19        -5.4289   -6.3308   -4.4009 C.ar      1 <0>        -0.0787
     31 C20        -4.2318   -6.9653   -4.6706 C.ar      1 <0>        -0.1509
     32 C21        -4.0440   -7.6006   -5.8895 C.ar      1 <0>         0.1329
     33 C22        -5.0595   -7.5970   -6.8347 C.ar      1 <0>        -0.2002
     34 C23        -6.2567   -6.9655   -6.5581 C.ar      1 <0>        -0.0609
     35 O4         -2.8671   -8.2252   -6.1574 O.3       1 <0>        -0.3176
     36 C24        -2.7442   -8.8584   -7.4325 C.3       1 <0>         0.0245
     37 C25        -4.4403   -1.6474    1.6374 C.3       1 <0>        -0.1051
     38 H3          1.0039    1.9031    0.0027 H         1 <0>         0.0971
     39 H4         -0.5459    1.8868   -0.8726 H         1 <0>         0.0700
     40 H5         -0.5289    1.8773    0.9072 H         1 <0>         0.0696
     41 H6          0.5123   -0.3556   -0.8948 H         1 <0>         0.1254
     42 H7          0.5293   -0.3651    0.8851 H         1 <0>         0.1258
     43 H8         -4.1855   -1.9141   -2.4940 H         1 <0>         0.0917
     44 H9         -5.0100   -2.5523   -1.0514 H         1 <0>         0.1074
     45 H10        -5.3464    0.2514   -1.1014 H         1 <0>         0.4072
     46 H11        -6.2148   -2.7460   -2.9119 H         1 <0>         0.1306
     47 H12        -9.9332   -1.1663   -4.3484 H         1 <0>         0.1570
     48 H13        -7.4238    1.2178   -1.8611 H         1 <0>         0.1448
     49 H14       -11.1517    2.8861   -0.6292 H         1 <0>         0.0656
     50 H15       -11.1455    1.2827    0.1438 H         1 <0>         0.0771
     51 H16        -9.6357    1.9609   -0.5109 H         1 <0>         0.0683
     52 H17       -12.0051   -0.5735   -1.8766 H         1 <0>         0.0590
     53 H18       -12.9961    0.8501   -1.4773 H         1 <0>         0.0832
     54 H19       -12.5364    0.5313   -3.1671 H         1 <0>         0.0880
     55 H20        -6.6636   -4.2688   -3.8337 H         1 <0>         0.3941
     56 H21        -9.5556   -6.0348   -3.9532 H         1 <0>         0.0673
     57 H22        -8.8087   -7.4729   -4.6894 H         1 <0>         0.0725
     58 H23        -8.0899   -6.7433   -3.2336 H         1 <0>         0.0585
     59 H24        -5.5755   -5.8361   -3.4522 H         1 <0>         0.1219
     60 H25        -3.4426   -6.9665   -3.9333 H         1 <0>         0.1304
     61 H26        -4.9158   -8.0908   -7.7843 H         1 <0>         0.1338
     62 H27        -7.0492   -6.9661   -7.2919 H         1 <0>         0.1314
     63 H28        -1.7592   -9.3174   -7.5168 H         1 <0>         0.1042
     64 H29        -3.5122   -9.6253   -7.5328 H         1 <0>         0.0594
     65 H30        -2.8675   -8.1155   -8.2205 H         1 <0>         0.0581
     66 H31        -5.0642   -0.7829    1.8641 H         1 <0>         0.1054
     67 H32        -5.0458   -2.4170    1.1587 H         1 <0>         0.1082
     68 H33        -4.0157   -2.0413    2.5608 H         1 <0>         0.0960
     69 H34        -1.8140   -0.6807    1.9935 H         1 <0>         0.4646
@<TRIPOS>BOND
     1    1    2 1
     2    1   38 1
     3    1   39 1
     4    1   40 1
     5    2   41 1
     6    2   42 1
     7    2    3 1
     8    3    8 1
     9    3    4 2
    10    4    5 1
    11    4   69 1
    12    5    7 2
    13    5   37 1
    14    6    8 1
    15    7    8 1
    16    7    9 1
    17    9   10 1
    18    9   43 1
    19    9   44 1
    20   10   11 1
    21   10   45 1
    22   11   16 ar
    23   11   12 ar
    24   12   13 ar
    25   12   46 1
    26   13   14 ar
    27   13   23 1
    28   14   15 ar
    29   14   47 1
    30   15   16 ar
    31   15   17 1
    32   16   48 1
    33   17   18 2
    34   17   19 2
    35   17   20 1
    36   20   21 1
    37   20   22 1
    38   21   49 1
    39   21   50 1
    40   21   51 1
    41   22   52 1
    42   22   53 1
    43   22   54 1
    44   23   24 2
    45   23   25 am
    46   25   26 1
    47   25   55 1
    48   26   27 1
    49   26   28 1
    50   26   29 1
    51   28   56 1
    52   28   57 1
    53   28   58 1
    54   29   34 ar
    55   29   30 ar
    56   30   31 ar
    57   30   59 1
    58   31   32 ar
    59   31   60 1
    60   32   33 ar
    61   32   35 1
    62   33   34 ar
    63   33   61 1
    64   34   62 1
    65   35   36 1
    66   36   63 1
    67   36   64 1
    68   36   65 1
    69   37   66 1
    70   37   67 1
    71   37   68 1
@<TRIPOS>MOLECULE
ZINC01041984
   65    69     0     0     0
SMALL
USER_CHARGES
2-(dimethoxyBLAHyl)oxy-6-(hydroxymethyl)tetrahydropyran-3,4,5-triol
@<TRIPOS>ATOM
      1 C1         -0.0127    1.0858    0.0080 C.3       1 <0>         0.0222
      2 O1         -0.6816    1.5467    1.1837 O.3       1 <0>        -0.2985
      3 C2         -0.7875    2.8927    1.3463 C.ar      1 <0>         0.1137
      4 C3         -0.2612    3.7518    0.3986 C.ar      1 <0>        -0.1174
      5 C4         -0.3667    5.1269    0.5587 C.ar      1 <0>        -0.0952
      6 C5         -0.9882    5.6450    1.6720 C.ar      1 <0>        -0.0758
      7 C6         -1.5234    4.7849    2.6238 C.ar      1 <0>        -0.1518
      8 C7         -1.4311    3.4146    2.4643 C.ar      1 <0>         0.1293
      9 O2         -1.9622    2.5808    3.3981 O.3       1 <0>        -0.2788
     10 C8         -2.6077    3.1888    4.5187 C.3       1 <0>         0.2234
     11 H1         -1.9516    3.9450    4.9499 H         1 <0>         0.0778
     12 C9         -2.9167    2.1209    5.5712 C.3       1 <0>         0.0602
     13 H2         -3.5385    1.3426    5.1288 H         1 <0>         0.0897
     14 C10        -3.6618    2.7695    6.7419 C.3       1 <0>         0.0865
     15 H3         -3.0198    3.5117    7.2163 H         1 <0>         0.0786
     16 C11        -4.9290    3.4483    6.2130 C.3       1 <0>         0.0882
     17 H4         -5.5924    2.6974    5.7839 H         1 <0>         0.0826
     18 C12        -4.5423    4.4649    5.1357 C.3       1 <0>         0.1108
     19 H5         -3.9119    5.2380    5.5750 H         1 <0>         0.0827
     20 O3         -3.8260    3.8018    4.0920 O.3       1 <0>        -0.3737
     21 C13        -5.8073    5.1043    4.5599 C.3       1 <0>         0.0902
     22 O4         -5.4435    6.1347    3.6390 O.3       1 <0>        -0.5715
     23 O5         -5.5954    4.1174    7.2855 O.3       1 <0>        -0.5494
     24 O6         -4.0190    1.7669    7.6955 O.3       1 <0>        -0.5515
     25 O7         -1.6956    1.5467    6.0417 O.3       1 <0>        -0.5518
     26 C14        -1.1070    7.1197    1.9082 C.3       1 <0>        -0.0955
     27 C15        -0.4596    7.9677    0.8457 C.3       1 <0>         0.0131
     28 C16         0.1945    6.0094   -0.5231 C.3       1 <0>         0.1433
     29 C17         1.7120    5.9574   -0.5211 C.3       1 <0>        -0.1180
     30 C18         2.2541    4.6174   -0.9681 C.3       1 <0>         0.1198
     31 H6          3.3023    4.7455   -1.2381 H         1 <0>         0.0929
     32 C19         1.5505    3.9943   -2.1239 C.2       1 <0>        -0.1556
     33 C20         0.3538    4.3690   -2.5602 C.2       1 <0>        -0.0884
     34 C21        -0.3038    5.4869   -1.8623 C.2       1 <0>        -0.1010
     35 C22        -1.3314    6.2198   -2.2568 C.2       1 <0>        -0.1472
     36 C23        -1.5807    7.3033   -1.2235 C.3       1 <0>         0.0180
     37 O8          2.1857    3.7148    0.1377 O.3       1 <0>        -0.3681
     38 C24         3.2016    2.7099    0.1315 C.3       1 <0>         0.0155
     39 H7          0.0021   -0.0041    0.0020 H         1 <0>         0.1064
     40 H8          1.0099    1.4631    0.0003 H         1 <0>         0.0612
     41 H9         -0.5399    1.4469   -0.8751 H         1 <0>         0.0531
     42 H10         0.2351    3.3501   -0.4724 H         1 <0>         0.1592
     43 H11        -2.0197    5.1904    3.4931 H         1 <0>         0.1436
     44 H12        -6.3948    4.3457    4.0427 H         1 <0>         0.0597
     45 H13        -6.3987    5.5326    5.3692 H         1 <0>         0.0823
     46 H14        -6.1976    6.5847    3.2342 H         1 <0>         0.3861
     47 H15        -5.8654    3.5325    8.0067 H         1 <0>         0.3991
     48 H16        -3.2638    1.2909    8.0673 H         1 <0>         0.3980
     49 H17        -1.1690    1.1218    5.3509 H         1 <0>         0.3961
     50 H18        -2.1646    7.3782    1.9616 H         1 <0>         0.1060
     51 H19        -0.6447    7.3557    2.8667 H         1 <0>         0.1195
     52 H20        -1.0472    8.8793    0.7363 H         1 <0>         0.1356
     53 H21         0.5334    8.2490    1.1964 H         1 <0>         0.1279
     54 H22         2.0910    6.7305   -1.1895 H         1 <0>         0.0974
     55 H23         2.0693    6.1603    0.4885 H         1 <0>         0.1085
     56 H24         2.0457    3.1853   -2.6402 H         1 <0>         0.1327
     57 H25        -0.1193    3.8730   -3.3948 H         1 <0>         0.1505
     58 H26        -1.8990    6.0720   -3.1637 H         1 <0>         0.1779
     59 H27        -2.4115    7.0265   -0.5744 H         1 <0>         0.1511
     60 H28        -1.7795    8.2571   -1.7122 H         1 <0>         0.1459
     61 H29         4.1823    3.1845    0.1639 H         1 <0>         0.0527
     62 H30         3.0808    2.0657    1.0023 H         1 <0>         0.0945
     63 H31         3.1167    2.1130   -0.7766 H         1 <0>         0.0487
     64 N1         -0.3081    7.3648   -0.5316 N.4       1 <0>        -0.3777
     65 H32         0.3408    7.9559   -1.0642 H         1 <0>         0.4346
@<TRIPOS>BOND
     1    1    2 1
     2    1   39 1
     3    1   40 1
     4    1   41 1
     5    2    3 1
     6    3    8 ar
     7    3    4 ar
     8    4    5 ar
     9    4   42 1
    10    5   28 1
    11    5    6 ar
    12    6    7 ar
    13    6   26 1
    14    7    8 ar
    15    7   43 1
    16    8    9 1
    17    9   10 1
    18   10   11 1
    19   10   20 1
    20   10   12 1
    21   12   13 1
    22   12   14 1
    23   12   25 1
    24   14   15 1
    25   14   16 1
    26   14   24 1
    27   16   17 1
    28   16   18 1
    29   16   23 1
    30   18   19 1
    31   18   20 1
    32   18   21 1
    33   21   22 1
    34   21   44 1
    35   21   45 1
    36   22   46 1
    37   23   47 1
    38   24   48 1
    39   25   49 1
    40   26   27 1
    41   26   50 1
    42   26   51 1
    43   27   52 1
    44   27   53 1
    45   27   64 1
    46   28   34 1
    47   28   29 1
    48   28   64 1
    49   29   30 1
    50   29   54 1
    51   29   55 1
    52   30   31 1
    53   30   32 1
    54   30   37 1
    55   32   33 2
    56   32   56 1
    57   33   34 1
    58   33   57 1
    59   34   35 2
    60   35   36 1
    61   35   58 1
    62   36   59 1
    63   36   60 1
    64   36   64 1
    65   37   38 1
    66   38   61 1
    67   38   62 1
    68   38   63 1
    69   64   65 1
@<TRIPOS>MOLECULE
ZINC12880066
   58    62     0     0     0
SMALL
USER_CHARGES
4-[(1S,3R,3aR,6aS)-1-(3-amino-3-oxo-propyl)-6'-chloro-7'-methyl-2',4,6-trioxo-spiro[1,2,3a,6a-tetrahydropyrrolo[4,3-c]pyrrole-3,3'-indoline]-5-yl]benzamide
@<TRIPOS>ATOM
      1 C1         -3.9280    6.6333    3.6755 C.3       1 <0>        -0.1337
      2 C2         -3.7039    5.1756    3.3660 C.ar      1 <0>        -0.0788
      3 C3         -4.7666    4.2942    3.3959 C.ar      1 <0>         0.0240
      4 C4         -4.5702    2.9540    3.1125 C.ar      1 <0>        -0.1122
      5 C5         -3.3028    2.4952    2.7995 C.ar      1 <0>        -0.0356
      6 C6         -2.2406    3.3704    2.7709 C.ar      1 <0>        -0.1976
      7 C7         -2.4259    4.7215    3.0511 C.ar      1 <0>         0.1852
      8 N1         -1.2119    5.4051    2.9565 N.am      1 <0>        -0.6359
      9 C8         -0.1934    4.5884    2.6238 C.2       1 <0>         0.5268
     10 O1          0.9674    4.9042    2.4697 O.2       1 <0>        -0.4160
     11 C9         -0.7755    3.2092    2.4797 C.3       1 <0>         0.0932
     12 C10        -0.1161    2.2186    3.4474 C.3       1 <0>        -0.1156
     13 H1         -0.6421    2.1336    4.3983 H         1 <0>         0.1881
     14 C11        -0.0686    0.8784    2.6616 C.3       1 <0>        -0.1319
     15 H2         -0.5717    0.0644    3.1833 H         1 <0>         0.1899
     16 C12        -0.7136    1.1963    1.2959 C.3       1 <0>         0.0395
     17 H3         -1.7706    0.9300    1.3047 H         1 <0>         0.1759
     18 C13         0.0135    0.4481    0.1769 C.3       1 <0>        -0.1324
     19 C14        -0.7163    0.6778   -1.1481 C.3       1 <0>        -0.1577
     20 C15        -0.0001   -0.0592   -2.2504 C.2       1 <0>         0.5133
     21 O2          0.9960   -0.7045   -2.0008 O.2       1 <0>        -0.5264
     22 N2         -0.4664   -0.0011   -3.5136 N.am      1 <0>        -0.8507
     23 C16         1.4084    0.6214    2.4682 C.2       1 <0>         0.5160
     24 O3          1.8836   -0.3342    1.8933 O.2       1 <0>        -0.4052
     25 N3          2.1008    1.6336    3.0392 N.am      1 <0>        -0.5249
     26 C17         1.3443    2.5727    3.6185 C.2       1 <0>         0.5124
     27 O4          1.7641    3.5551    4.1912 O.2       1 <0>        -0.4033
     28 C18         3.4977    1.6882    3.0288 C.ar      1 <0>         0.1181
     29 C19         4.1756    1.8760    1.8293 C.ar      1 <0>        -0.1024
     30 C20         5.5514    1.9353    1.8160 C.ar      1 <0>        -0.0722
     31 C21         6.2665    1.7957    3.0081 C.ar      1 <0>        -0.1130
     32 C22         5.5822    1.6018    4.2108 C.ar      1 <0>        -0.0429
     33 C23         4.2061    1.5489    4.2173 C.ar      1 <0>        -0.0994
     34 C24         7.7418    1.8534    2.9972 C.2       1 <0>         0.5593
     35 O5          8.3626    1.7322    4.0355 O.2       1 <0>        -0.5264
     36 N4          8.4002    2.0405    1.8362 N.am      1 <0>        -0.8463
     37 Cl1        -6.3560    4.8701    3.7903 Cl        1 <0>        -0.0156
     38 H4         -4.1619    7.1684    2.7552 H         1 <0>         0.0906
     39 H5         -4.7583    6.7328    4.3747 H         1 <0>         0.0915
     40 H6         -3.0259    7.0531    4.1206 H         1 <0>         0.0751
     41 H7         -5.4040    2.2680    3.1352 H         1 <0>         0.1602
     42 H8         -3.1467    1.4497    2.5781 H         1 <0>         0.1491
     43 H9         -1.1133    6.3574    3.1125 H         1 <0>         0.4394
     44 H10         0.0291   -0.6180    0.4030 H         1 <0>         0.1440
     45 H11         1.0359    0.8177    0.0974 H         1 <0>         0.0998
     46 H12        -1.7386    0.3083   -1.0686 H         1 <0>         0.1164
     47 H13        -0.7319    1.7439   -1.3743 H         1 <0>         0.0906
     48 H14        -1.2631    0.5151   -3.7132 H         1 <0>         0.4040
     49 H15        -0.0054   -0.4754   -4.2231 H         1 <0>         0.4116
     50 H16         3.6223    1.9794    0.9075 H         1 <0>         0.1306
     51 H17         6.0771    2.0856    0.8846 H         1 <0>         0.1412
     52 H18         6.1318    1.4939    5.1342 H         1 <0>         0.1528
     53 H19         3.6765    1.3987    5.1465 H         1 <0>         0.1374
     54 H20         7.9049    2.1372    1.0078 H         1 <0>         0.4011
     55 H21         9.3695    2.0784    1.8290 H         1 <0>         0.4118
     56 N5         -0.5572    2.6462    1.1590 N.4       1 <0>        -0.4992
     57 H22         0.3885    2.8715    0.8288 H         1 <0>         0.4377
     58 H23        -1.2485    3.0167    0.4964 H         1 <0>         0.4486
@<TRIPOS>BOND
     1    1    2 1
     2    1   38 1
     3    1   39 1
     4    1   40 1
     5    2    7 ar
     6    2    3 ar
     7    3    4 ar
     8    3   37 1
     9    4    5 ar
    10    4   41 1
    11    5    6 ar
    12    5   42 1
    13    6   11 1
    14    6    7 ar
    15    7    8 1
    16    8    9 am
    17    8   43 1
    18    9   10 2
    19    9   11 1
    20   11   12 1
    21   11   56 1
    22   12   13 1
    23   12   26 1
    24   12   14 1
    25   14   15 1
    26   14   16 1
    27   14   23 1
    28   16   17 1
    29   16   18 1
    30   16   56 1
    31   18   19 1
    32   18   44 1
    33   18   45 1
    34   19   20 1
    35   19   46 1
    36   19   47 1
    37   20   21 2
    38   20   22 am
    39   22   48 1
    40   22   49 1
    41   23   24 2
    42   23   25 am
    43   25   26 am
    44   25   28 1
    45   26   27 2
    46   28   33 ar
    47   28   29 ar
    48   29   30 ar
    49   29   50 1
    50   30   31 ar
    51   30   51 1
    52   31   32 ar
    53   31   34 1
    54   32   33 ar
    55   32   52 1
    56   33   53 1
    57   34   35 2
    58   34   36 am
    59   36   54 1
    60   36   55 1
    61   56   57 1
    62   56   58 1
@<TRIPOS>MOLECULE
ZINC26531210
   60    63     0     0     0
SMALL
USER_CHARGES
4-[(2S)-3-[4-(1,3-benzodioxol-5-ylmethyl)piperazin-1-yl]-2-hydroxy-propoxy]benzohydrazide
@<TRIPOS>ATOM
      1 C1         10.1608   -8.2050   -6.0043 C.ar      1 <0>        -0.0162
      2 C2          9.3920   -7.6757   -4.9919 C.ar      1 <0>        -0.1537
      3 C3          9.8231   -6.5452   -4.3077 C.ar      1 <0>         0.1537
      4 C4         11.0284   -5.9410   -4.6460 C.ar      1 <0>        -0.2175
      5 C5         11.8053   -6.4670   -5.6539 C.ar      1 <0>        -0.0454
      6 C6         11.3756   -7.6037   -6.3438 C.ar      1 <0>        -0.1632
      7 C7         12.2031   -8.1681   -7.4280 C.2       1 <0>         0.5621
      8 O1         11.8279   -9.1574   -8.0270 O.2       1 <0>        -0.5250
      9 N1         13.3745   -7.5867   -7.7541 N.am      1 <0>        -0.5941
     10 N2         14.1402   -8.1090   -8.7574 N.3       1 <0>        -0.5775
     11 O2          9.0626   -6.0265   -3.3106 O.3       1 <0>        -0.3004
     12 C8          9.5651   -4.8638   -2.6491 C.3       1 <0>         0.0617
     13 C9          8.5787   -4.4282   -1.5637 C.3       1 <0>         0.1154
     14 H1          7.5594   -4.3329   -1.9661 H         1 <0>         0.0673
     15 C10         9.0540   -3.1144   -0.9401 C.3       1 <0>         0.0229
     16 N3          8.1069   -2.6962    0.1021 N.3       1 <0>        -0.5349
     17 C11         8.3960   -1.3296    0.5587 C.3       1 <0>         0.0262
     18 C12         7.4405   -0.9618    1.6963 C.3       1 <0>         0.0008
     19 N4          6.0537   -1.0737    1.2232 N.4       1 <0>        -0.4014
     20 C13         5.7646   -2.4402    0.7666 C.3       1 <0>        -0.0043
     21 C14         6.7201   -2.8080   -0.3710 C.3       1 <0>         0.0089
     22 C15         5.1066   -0.6554    2.2653 C.3       1 <0>         0.0537
     23 C16         3.7246   -0.5476    1.6742 C.ar      1 <0>        -0.1560
     24 C17         2.8855   -1.6464    1.6768 C.ar      1 <0>        -0.0818
     25 C18         1.6171   -1.5526    1.1353 C.ar      1 <0>        -0.0997
     26 C19         1.1834   -0.3557    0.5885 C.ar      1 <0>         0.0724
     27 C20         2.0284    0.7513    0.5864 C.ar      1 <0>         0.0407
     28 C21         3.2983    0.6500    1.1309 C.ar      1 <0>        -0.0814
     29 O3          1.3764    1.7966   -0.0014 O.3       1 <0>        -0.3032
     30 C22        -0.0175    1.4357    0.0099 C.3       1 <0>         0.2064
     31 O4          0.0021   -0.0041    0.0020 O.3       1 <0>        -0.2941
     32 O5          8.5063   -5.4363   -0.5534 O.3       1 <0>        -0.5744
     33 H2          9.8255   -9.0838   -6.5349 H         1 <0>         0.1473
     34 H3          8.4530   -8.1398   -4.7289 H         1 <0>         0.1409
     35 H4         11.3578   -5.0601   -4.1150 H         1 <0>         0.1325
     36 H5         12.7438   -5.9997   -5.9132 H         1 <0>         0.1286
     37 H6         13.7139   -6.6916   -7.2123 H         1 <0>         0.4136
     38 H7         15.0509   -7.5037   -8.8767 H         1 <0>         0.3558
     39 H8         14.4177   -9.1434   -8.5063 H         1 <0>         0.3392
     40 H9         10.5374   -5.0949   -2.1896 H         1 <0>         0.0788
     41 H10         9.6888   -4.0509   -3.3798 H         1 <0>         0.0809
     42 H11        10.0493   -3.2590   -0.4945 H         1 <0>         0.1056
     43 H12         9.1097   -2.3384   -1.7177 H         1 <0>         0.0595
     44 H13         9.4341   -1.2751    0.9184 H         1 <0>         0.1265
     45 H14         8.2602   -0.6273   -0.2770 H         1 <0>         0.0632
     46 H15         7.5967   -1.6472    2.5424 H         1 <0>         0.1388
     47 H16         7.6363    0.0711    2.0201 H         1 <0>         0.1387
     48 H17         5.9004   -3.1424    1.6023 H         1 <0>         0.1387
     49 H18         4.7265   -2.4947    0.4069 H         1 <0>         0.1375
     50 H19         6.5651   -2.1227   -1.2174 H         1 <0>         0.0646
     51 H20         6.5254   -3.8410   -0.6952 H         1 <0>         0.1275
     52 H21         5.1017   -1.3988    3.0760 H         1 <0>         0.1400
     53 H22         5.4111    0.3225    2.6664 H         1 <0>         0.1411
     54 H23         3.2220   -2.5802    2.1025 H         1 <0>         0.1472
     55 H24         0.9638   -2.4126    1.1387 H         1 <0>         0.1503
     56 H25         3.9558    1.5068    1.1302 H         1 <0>         0.1440
     57 H26        -0.4938    1.8410    0.9148 H         1 <0>         0.0991
     58 H27        -0.5109    1.8506   -0.8814 H         1 <0>         0.1467
     59 H28         7.8441   -5.2990    0.3141 H         1 <0>         0.4076
     60 H29         5.9317   -0.3960    0.3654 H         1 <0>         0.4383
@<TRIPOS>BOND
     1    1    6 ar
     2    1    2 ar
     3    1   33 1
     4    2    3 ar
     5    2   34 1
     6    3    4 ar
     7    3   11 1
     8    4    5 ar
     9    4   35 1
    10    5    6 ar
    11    5   36 1
    12    6    7 1
    13    7    8 2
    14    7    9 am
    15    9   10 1
    16    9   37 1
    17   10   38 1
    18   10   39 1
    19   11   12 1
    20   12   13 1
    21   12   40 1
    22   12   41 1
    23   13   14 1
    24   13   15 1
    25   13   32 1
    26   15   16 1
    27   15   42 1
    28   15   43 1
    29   16   21 1
    30   16   17 1
    31   17   18 1
    32   17   44 1
    33   17   45 1
    34   18   19 1
    35   18   46 1
    36   18   47 1
    37   19   20 1
    38   19   22 1
    39   19   60 1
    40   20   21 1
    41   20   48 1
    42   20   49 1
    43   21   50 1
    44   21   51 1
    45   22   23 1
    46   22   52 1
    47   22   53 1
    48   23   28 ar
    49   23   24 ar
    50   24   25 ar
    51   24   54 1
    52   25   26 ar
    53   25   55 1
    54   26   31 1
    55   26   27 ar
    56   27   28 ar
    57   27   29 1
    58   28   56 1
    59   29   30 1
    60   30   31 1
    61   30   57 1
    62   30   58 1
    63   32   59 1
@<TRIPOS>MOLECULE
ZINC39676518
   67    71     0     0     0
SMALL
USER_CHARGES

@<TRIPOS>ATOM
      1 C1         -1.3758   -2.8366   -1.3958 C.3       1 <0>        -0.1438
      2 C2         -2.3948   -2.3471   -0.3648 C.3       1 <0>         0.1349
      3 H1         -3.3018   -2.9497   -0.4135 H         1 <0>         0.0899
      4 C3         -2.7193   -0.8885   -0.5976 C.2       1 <0>        -0.3660
      5 C4         -2.3554   -0.2197    0.5133 C.2       1 <0>         0.2097
      6 N1         -1.8333   -1.0653    1.4416 N.pl3     1 <0>        -0.5779
      7 O1         -1.8328   -2.3969    0.9550 O.3       1 <0>        -0.1409
      8 C5         -2.5063    1.2678    0.7024 C.3       1 <0>        -0.1139
      9 C6         -3.2963   -0.3316   -1.7627 C.2       1 <0>         0.6464
     10 O2         -4.4591   -0.5661   -2.0381 O.2       1 <0>        -0.5345
     11 N2         -2.5592    0.4587   -2.5680 N.am      1 <0>        -0.6141
     12 C7         -1.1131    0.7651   -2.4638 C.3       1 <0>         0.1184
     13 C8         -0.6096    0.7736   -3.9246 C.3       1 <0>        -0.1142
     14 H2          0.1382    1.5544   -4.0638 H         1 <0>         0.1132
     15 C9         -1.8597    1.0729   -4.7688 C.3       1 <0>        -0.0711
     16 C10        -3.0107    1.2126   -3.7621 C.3       1 <0>         0.1051
     17 C11        -2.1406   -0.0823   -5.7250 C.3       1 <0>        -0.1451
     18 C12        -3.3540    0.2633   -6.5929 C.3       1 <0>        -0.0100
     19 N3         -3.0843    1.4940   -7.3462 N.4       1 <0>        -0.5047
     20 C13        -2.9068    2.6193   -6.4205 C.3       1 <0>        -0.0098
     21 C14        -1.6748    2.3732   -5.5451 C.3       1 <0>        -0.1334
     22 C15        -0.0365   -0.5714   -4.2900 C.2       1 <0>         0.5117
     23 O3         -0.5051   -1.5812   -3.8087 O.2       1 <0>        -0.5077
     24 N4          0.9968   -0.6522   -5.1515 N.am      1 <0>        -0.7311
     25 C16         1.5538   -1.9598   -5.5067 C.3       1 <0>         0.1227
     26 C17         2.7081   -1.7714   -6.4932 C.3       1 <0>        -0.0497
     27 C18         3.2811   -3.1165   -6.8586 C.2       1 <0>        -0.1799
     28 C19         2.7909   -4.0175   -7.9045 C.ar      1 <0>        -0.0897
     29 C20         1.7429   -3.9556   -8.8248 C.ar      1 <0>        -0.0657
     30 C21         1.5426   -4.9998   -9.7004 C.ar      1 <0>        -0.0554
     31 C22         2.3763   -6.1104   -9.6709 C.ar      1 <0>        -0.0902
     32 C23         3.4145   -6.1857   -8.7686 C.ar      1 <0>        -0.1095
     33 C24         3.6350   -5.1426   -7.8758 C.ar      1 <0>         0.0996
     34 N5          4.5642   -4.9275   -6.8816 N.pl3     1 <0>        -0.5894
     35 C25         4.3411   -3.7136   -6.2912 C.2       1 <0>         0.0758
     36 Cl1         0.2409   -4.9277  -10.8467 Cl        1 <0>        -0.0718
     37 H3         -1.0133   -3.8234   -1.1080 H         1 <0>         0.0580
     38 H4         -1.8497   -2.8951   -2.3756 H         1 <0>         0.0772
     39 H5         -0.5385   -2.1400   -1.4381 H         1 <0>         0.0608
     40 H6         -1.5076   -0.7956    2.3146 H         1 <0>         0.4483
     41 H7         -3.4804    1.4811    1.1425 H         1 <0>         0.0949
     42 H8         -1.7208    1.6314    1.3648 H         1 <0>         0.0846
     43 H9         -2.4269    1.7667   -0.2635 H         1 <0>         0.0869
     44 H10        -0.9638    1.7424   -2.0047 H         1 <0>         0.0835
     45 H11        -0.6013   -0.0075   -1.8900 H         1 <0>         0.0976
     46 H12        -3.9235    0.7747   -4.1659 H         1 <0>         0.0877
     47 H13        -3.1692    2.2617   -3.5121 H         1 <0>         0.0817
     48 H14        -1.2720   -0.2463   -6.3627 H         1 <0>         0.0934
     49 H15        -2.3484   -0.9862   -5.1525 H         1 <0>         0.1262
     50 H16        -3.5472   -0.5532   -7.2886 H         1 <0>         0.1377
     51 H17        -4.2259    0.4113   -5.9557 H         1 <0>         0.1346
     52 H18        -2.2450    1.3748   -7.8934 H         1 <0>         0.4271
     53 H19        -2.7704    3.5392   -6.9891 H         1 <0>         0.1388
     54 H20        -3.7894    2.7114   -5.7876 H         1 <0>         0.1327
     55 H21        -1.5542    3.2005   -4.8457 H         1 <0>         0.1207
     56 H22        -0.7892    2.2975   -6.1761 H         1 <0>         0.0966
     57 H23         1.3716    0.1554   -5.5364 H         1 <0>         0.3984
     58 H24         1.9213   -2.4545   -4.6077 H         1 <0>         0.0719
     59 H25         0.7785   -2.5721   -5.9672 H         1 <0>         0.0705
     60 H26         2.3406   -1.2767   -7.3923 H         1 <0>         0.0744
     61 H27         3.4834   -1.1591   -6.0327 H         1 <0>         0.0785
     62 H28         1.0925   -3.0937   -8.8497 H         1 <0>         0.1269
     63 H29         2.2088   -6.9232  -10.3621 H         1 <0>         0.1392
     64 H30         4.0567   -7.0539   -8.7547 H         1 <0>         0.1332
     65 H31         4.9292   -3.2983   -5.4861 H         1 <0>         0.1743
     66 H32         5.2732   -5.5434   -6.6388 H         1 <0>         0.4224
     67 H33        -3.8598    1.6863   -7.9624 H         1 <0>         0.4336
@<TRIPOS>BOND
     1    1    2 1
     2    1   37 1
     3    1   38 1
     4    1   39 1
     5    2    3 1
     6    2    7 1
     7    2    4 1
     8    4    5 2
     9    4    9 1
    10    5    6 1
    11    5    8 1
    12    6    7 1
    13    6   40 1
    14    8   41 1
    15    8   42 1
    16    8   43 1
    17    9   10 2
    18    9   11 am
    19   11   16 1
    20   11   12 1
    21   12   13 1
    22   12   44 1
    23   12   45 1
    24   13   14 1
    25   13   15 1
    26   13   22 1
    27   15   21 1
    28   15   16 1
    29   15   17 1
    30   16   46 1
    31   16   47 1
    32   17   18 1
    33   17   48 1
    34   17   49 1
    35   18   19 1
    36   18   50 1
    37   18   51 1
    38   19   20 1
    39   19   52 1
    40   19   67 1
    41   20   21 1
    42   20   53 1
    43   20   54 1
    44   21   55 1
    45   21   56 1
    46   22   23 2
    47   22   24 am
    48   24   25 1
    49   24   57 1
    50   25   26 1
    51   25   58 1
    52   25   59 1
    53   26   60 1
    54   26   61 1
    55   26   27 1
    56   27   28 1
    57   27   35 2
    58   28   29 ar
    59   28   33 ar
    60   29   30 ar
    61   29   62 1
    62   30   31 ar
    63   30   36 1
    64   31   32 ar
    65   31   63 1
    66   32   33 ar
    67   32   64 1
    68   33   34 1
    69   34   66 1
    70   34   35 1
    71   35   65 1
@<TRIPOS>MOLECULE
ZINC20504126
   62    65     0     0     0
SMALL
USER_CHARGES

@<TRIPOS>ATOM
      1 C1         -0.0173    1.4248    0.0099 C.3       1 <0>         0.0253
      2 O1          0.0021   -0.0041    0.0020 O.3       1 <0>        -0.3165
      3 C2         -1.2011   -0.6379    0.0101 C.ar      1 <0>         0.1222
      4 C3         -2.3739    0.1040    0.0195 C.ar      1 <0>        -0.1929
      5 C4         -3.5965   -0.5348    0.0277 C.ar      1 <0>        -0.0648
      6 C5         -3.6529   -1.9295    0.0261 C.ar      1 <0>         0.0615
      7 C6         -2.4709   -2.6717    0.0162 C.ar      1 <0>        -0.1136
      8 C7         -1.2526   -2.0247    0.0031 C.ar      1 <0>        -0.1335
      9 N1         -4.8659   -2.5685    0.0347 N.2       1 <0>        -0.4948
     10 C8         -5.0784   -3.5848   -0.7693 C.2       1 <0>         0.4005
     11 N2         -4.2044   -4.1464   -1.6778 N.pl3     1 <0>        -0.7398
     12 C9         -4.4805   -5.4799   -2.1575 C.3       1 <0>         0.1441
     13 H1         -4.6793   -5.3126   -3.2161 H         1 <0>         0.0800
     14 C10        -3.2907   -6.3937   -2.1864 C.3       1 <0>         0.1193
     15 H2         -3.3497   -7.0207   -3.0761 H         1 <0>         0.0818
     16 C11        -3.2100   -7.2909   -0.9557 C.3       1 <0>         0.0734
     17 H3         -3.0752   -6.6792   -0.0637 H         1 <0>         0.0719
     18 C12        -4.5181   -8.0811   -0.8466 C.3       1 <0>        -0.1409
     19 C13        -5.6570   -7.1061   -0.5782 C.3       1 <0>        -0.0960
     20 H4         -5.4706   -6.5964    0.3671 H         1 <0>         0.1188
     21 C14        -5.7883   -6.0765   -1.6624 C.3       1 <0>        -0.0404
     22 H5         -6.3807   -6.4669   -2.4899 H         1 <0>         0.1540
     23 S1         -6.5641   -4.5656   -0.9344 S.3       1 <0>        -0.0615
     24 C15        -6.9465   -7.8785   -0.4705 C.2       1 <0>         0.5328
     25 O2         -7.8573   -7.6480   -1.2375 O.2       1 <0>        -0.5094
     26 N3         -7.0876   -8.8254    0.4781 N.am      1 <0>        -0.7305
     27 C16        -8.3412   -9.5762    0.5828 C.3       1 <0>         0.0945
     28 C17        -8.2394  -10.5810    1.7321 C.3       1 <0>        -0.0217
     29 N4         -9.4964  -11.3340    1.8371 N.4       1 <0>        -0.3816
     30 C18       -10.5841  -10.4213    2.2152 C.3       1 <0>        -0.0518
     31 C19       -11.8927  -11.2080    2.3237 C.3       1 <0>         0.0365
     32 O3        -11.7328  -12.2595    3.2801 O.3       1 <0>        -0.3553
     33 C20       -10.6683  -13.1623    2.9677 C.3       1 <0>         0.0355
     34 C21        -9.3575  -12.3792    2.8604 C.3       1 <0>        -0.0426
     35 O4         -2.1111   -8.1944   -1.0900 O.3       1 <0>        -0.5572
     36 O5         -2.1027   -5.6028   -2.2575 O.3       1 <0>        -0.5555
     37 H6          1.0053    1.8021    0.0021 H         1 <0>         0.1030
     38 H7         -0.5445    1.7859   -0.8732 H         1 <0>         0.0570
     39 H8         -0.5275    1.7763    0.9067 H         1 <0>         0.0572
     40 H9         -2.3293    1.1831    0.0207 H         1 <0>         0.1341
     41 H10        -4.5087    0.0433    0.0357 H         1 <0>         0.1316
     42 H11        -2.5100   -3.7510    0.0149 H         1 <0>         0.1284
     43 H12        -0.3375   -2.5982   -0.0083 H         1 <0>         0.1321
     44 H13        -4.7036   -8.6118   -1.7804 H         1 <0>         0.0903
     45 H14        -4.4468   -8.7947   -0.0258 H         1 <0>         0.0837
     46 H15        -6.3592   -9.0097    1.0915 H         1 <0>         0.4091
     47 H16        -9.1630   -8.8864    0.7750 H         1 <0>         0.0925
     48 H17        -8.5247  -10.1089   -0.3503 H         1 <0>         0.0922
     49 H18        -7.4177  -11.2709    1.5399 H         1 <0>         0.1408
     50 H19        -8.0559  -10.0484    2.6652 H         1 <0>         0.1396
     51 H20       -10.3554   -9.9616    3.1767 H         1 <0>         0.1424
     52 H21       -10.6881   -9.6455    1.4566 H         1 <0>         0.1455
     53 H22       -12.6926  -10.5414    2.6460 H         1 <0>         0.1442
     54 H23       -12.1426  -11.6345    1.3522 H         1 <0>         0.0832
     55 H24       -10.5821  -13.9101    3.7561 H         1 <0>         0.1438
     56 H25       -10.8763  -13.6557    2.0183 H         1 <0>         0.0826
     57 H26        -8.5509  -13.0569    2.5808 H         1 <0>         0.1444
     58 H27        -9.1292  -11.9189    3.8217 H         1 <0>         0.1410
     59 H28        -2.0019   -8.7952   -0.3403 H         1 <0>         0.3873
     60 H29        -1.2863   -6.1205   -2.2801 H         1 <0>         0.3961
     61 H30        -3.4252   -3.6580   -1.9863 H         1 <0>         0.4199
     62 H31        -9.7086  -11.7602    0.9475 H         1 <0>         0.4261
@<TRIPOS>BOND
     1    1    2 1
     2    1   37 1
     3    1   38 1
     4    1   39 1
     5    2    3 1
     6    3    8 ar
     7    3    4 ar
     8    4    5 ar
     9    4   40 1
    10    5    6 ar
    11    5   41 1
    12    6    7 ar
    13    6    9 1
    14    7    8 ar
    15    7   42 1
    16    8   43 1
    17    9   10 2
    18   10   23 1
    19   10   11 1
    20   11   12 1
    21   11   61 1
    22   12   13 1
    23   12   21 1
    24   12   14 1
    25   14   15 1
    26   14   16 1
    27   14   36 1
    28   16   17 1
    29   16   18 1
    30   16   35 1
    31   18   19 1
    32   18   44 1
    33   18   45 1
    34   19   20 1
    35   19   21 1
    36   19   24 1
    37   21   22 1
    38   21   23 1
    39   24   25 2
    40   24   26 am
    41   26   27 1
    42   26   46 1
    43   27   28 1
    44   27   47 1
    45   27   48 1
    46   28   29 1
    47   28   49 1
    48   28   50 1
    49   29   34 1
    50   29   30 1
    51   29   62 1
    52   30   31 1
    53   30   51 1
    54   30   52 1
    55   31   32 1
    56   31   53 1
    57   31   54 1
    58   32   33 1
    59   33   34 1
    60   33   55 1
    61   33   56 1
    62   34   57 1
    63   34   58 1
    64   35   59 1
    65   36   60 1
@<TRIPOS>MOLECULE
ZINC08437940
   53    55     0     0     0
SMALL
USER_CHARGES
4-amino-N-[2-[[4-[(3,4-dichlorophenyl)methoxy]-3-methoxy-phenyl]methylamino]ethyl]-1,2,5-oxadiazole-3-carboxamide
@<TRIPOS>ATOM
      1 C1         -3.1928    3.1190    5.2140 C.3       1 <0>         0.0225
      2 O1         -2.6568    2.8296    3.9214 O.3       1 <0>        -0.2958
      3 C2         -3.3799    3.2432    2.8464 C.ar      1 <0>         0.1089
      4 C3         -4.5759    3.9179    3.0321 C.ar      1 <0>        -0.1526
      5 C4         -5.3125    4.3327    1.9383 C.ar      1 <0>        -0.1725
      6 C5         -4.8559    4.0810    0.6578 C.ar      1 <0>        -0.0801
      7 C6         -3.6607    3.4134    0.4656 C.ar      1 <0>        -0.1776
      8 C7         -2.9175    2.9950    1.5577 C.ar      1 <0>         0.1446
      9 O2         -1.7415    2.3381    1.3703 O.3       1 <0>        -0.2876
     10 C8         -1.3321    2.1131    0.0199 C.3       1 <0>         0.1003
     11 C9         -0.0167    1.3778    0.0096 C.ar      1 <0>        -0.0907
     12 C10         1.1707    2.0862    0.0021 C.ar      1 <0>        -0.0754
     13 C11         2.3777    1.4131   -0.0131 C.ar      1 <0>        -0.0992
     14 C12         2.3983    0.0299   -0.0208 C.ar      1 <0>        -0.0177
     15 C13         1.2094   -0.6794   -0.0132 C.ar      1 <0>        -0.0357
     16 C14         0.0021   -0.0041    0.0020 C.ar      1 <0>        -0.0726
     17 Cl1         1.2335   -2.4152   -0.0222 Cl        1 <0>        -0.0364
     18 Cl2         3.9142   -0.8161   -0.0393 Cl        1 <0>        -0.0341
     19 C15        -6.6158    5.0613    2.1420 C.3       1 <0>         0.0573
     20 C16        -9.0047    4.7651    2.4032 C.3       1 <0>        -0.0188
     21 C17       -10.1230    3.7226    2.4632 C.3       1 <0>         0.0952
     22 N1        -11.4087    4.3965    2.6612 N.am      1 <0>        -0.7177
     23 C18       -12.5428    3.6732    2.7450 C.2       1 <0>         0.6286
     24 O3        -12.4989    2.4621    2.6564 O.2       1 <0>        -0.5070
     25 C19       -13.8427    4.3546    2.9451 C.2       1 <0>        -0.1044
     26 C20       -15.1929    3.7585    3.0632 C.2       1 <0>         0.3305
     27 N2        -15.9574    4.8136    3.2260 N.2       1 <0>        -0.4039
     28 O4        -15.2751    5.8109    3.2142 O.3       1 <0>         0.3602
     29 N3        -14.0874    5.6412    3.0684 N.2       1 <0>        -0.3063
     30 N4        -15.5586    2.4203    3.0146 N.pl3     1 <0>        -0.7982
     31 H1         -3.2991    4.1976    5.3301 H         1 <0>         0.0593
     32 H2         -4.1686    2.6445    5.3173 H         1 <0>         0.0564
     33 H3         -2.5194    2.7358    5.9807 H         1 <0>         0.1107
     34 H4         -4.9348    4.1158    4.0313 H         1 <0>         0.1435
     35 H5         -5.4344    4.4063   -0.1942 H         1 <0>         0.1376
     36 H6         -3.3064    3.2177   -0.5357 H         1 <0>         0.1486
     37 H7         -1.2175    3.0700   -0.4893 H         1 <0>         0.0838
     38 H8         -2.0859    1.5163   -0.4937 H         1 <0>         0.0816
     39 H9          1.1550    3.1660    0.0077 H         1 <0>         0.1421
     40 H10         3.3048    1.9671   -0.0194 H         1 <0>         0.1501
     41 H11        -0.9258   -0.5567    0.0076 H         1 <0>         0.1444
     42 H12        -6.5753    5.6246    3.0743 H         1 <0>         0.1381
     43 H13        -6.7831    5.7461    1.3107 H         1 <0>         0.1408
     44 H14        -8.9807    5.3264    3.3373 H         1 <0>         0.1414
     45 H15        -9.1885    5.4478    1.5736 H         1 <0>         0.1421
     46 H16       -10.1470    3.1613    1.5292 H         1 <0>         0.0964
     47 H17        -9.9392    3.0399    3.2928 H         1 <0>         0.0959
     48 H18       -11.4437    5.3633    2.7319 H         1 <0>         0.4171
     49 H19       -14.8819    1.7369    2.8881 H         1 <0>         0.4287
     50 H20       -16.4908    2.1686    3.1071 H         1 <0>         0.4224
     51 N5         -7.7143    4.0787    2.2038 N.4       1 <0>        -0.5151
     52 H21        -7.5489    3.4346    2.9861 H         1 <0>         0.4346
     53 H22        -7.7447    3.5489    1.3248 H         1 <0>         0.4356
@<TRIPOS>BOND
     1    1    2 1
     2    1   31 1
     3    1   32 1
     4    1   33 1
     5    2    3 1
     6    3    8 ar
     7    3    4 ar
     8    4    5 ar
     9    4   34 1
    10    5    6 ar
    11    5   19 1
    12    6    7 ar
    13    6   35 1
    14    7    8 ar
    15    7   36 1
    16    8    9 1
    17    9   10 1
    18   10   11 1
    19   10   37 1
    20   10   38 1
    21   11   16 ar
    22   11   12 ar
    23   12   13 ar
    24   12   39 1
    25   13   14 ar
    26   13   40 1
    27   14   15 ar
    28   14   18 1
    29   15   16 ar
    30   15   17 1
    31   16   41 1
    32   19   42 1
    33   19   43 1
    34   19   51 1
    35   20   21 1
    36   20   44 1
    37   20   45 1
    38   20   51 1
    39   21   22 1
    40   21   46 1
    41   21   47 1
    42   22   23 am
    43   22   48 1
    44   23   24 2
    45   23   25 1
    46   25   29 2
    47   25   26 1
    48   26   27 2
    49   26   30 1
    50   27   28 1
    51   28   29 1
    52   30   49 1
    53   30   50 1
    54   51   52 1
    55   51   53 1
@<TRIPOS>MOLECULE
ZINC20343925
   50    52     0     0     0
SMALL
USER_CHARGES
N'-(3-chloro-4-fluoro-phenyl)-3-imino-5-methyl-N-[2-(4-sulfamoylphenyl)ethyl]isothiazole-2-carboxamidine
@<TRIPOS>ATOM
      1 C1         -2.0307    0.5416    0.1357 C.3       1 <0>        -0.0992
      2 C2         -0.9255    1.4962   -0.2361 C.2       1 <0>        -0.0685
      3 C3         -0.4542    1.7941   -1.4682 C.2       1 <0>        -0.2341
      4 C4          0.5803    2.7232   -1.5431 C.2       1 <0>         0.4091
      5 N1          1.1037    3.0836   -2.6973 N.2       1 <0>        -0.7066
      6 N2          1.0291    3.2472   -0.3512 N.pl3     1 <0>        -0.6188
      7 S1          0.0465    2.4725    0.8117 S.3       1 <0>         0.3220
      8 C5          2.0283    4.1716   -0.1464 C.cat     1 <0>         0.7961
      9 N3          3.2811    3.7842   -0.1016 N.pl3     1 <0>        -0.5593
     10 C6          3.5998    2.4688   -0.3162 C.ar      1 <0>         0.0623
     11 C7          4.4774    2.1192   -1.3442 C.ar      1 <0>        -0.0500
     12 C8          4.7953    0.7936   -1.5558 C.ar      1 <0>        -0.1251
     13 C9          4.2457   -0.1906   -0.7507 C.ar      1 <0>         0.1485
     14 C10         3.3739    0.1501    0.2720 C.ar      1 <0>        -0.0664
     15 C11         3.0526    1.4742    0.4958 C.ar      1 <0>        -0.0717
     16 Cl1         2.6900   -1.0895    1.2768 Cl        1 <0>        -0.0127
     17 F1          4.5607   -1.4872   -0.9626 F         1 <0>        -0.1057
     18 N4          1.7139    5.4993    0.0111 N.pl3     1 <0>        -0.6554
     19 C12         2.7774    6.4830    0.2291 C.3       1 <0>         0.0811
     20 C13         2.1618    7.8764    0.3720 C.3       1 <0>        -0.0965
     21 C14         3.2557    8.8883    0.5963 C.ar      1 <0>        -0.0448
     22 C15         3.6611    9.1945    1.8819 C.ar      1 <0>        -0.1312
     23 C16         4.6676   10.1195    2.0874 C.ar      1 <0>        -0.0201
     24 C17         5.2624   10.7451    1.0077 C.ar      1 <0>        -0.6534
     25 C18         4.8534   10.4428   -0.2777 C.ar      1 <0>        -0.0074
     26 C19         3.8499    9.5146   -0.4834 C.ar      1 <0>        -0.1308
     27 S2          6.5423   11.9273    1.2698 S.o2      1 <0>         2.6317
     28 O1          7.1167   11.6302    2.5351 O.2       1 <0>        -0.9812
     29 O2          7.3103   11.9662    0.0748 O.2       1 <0>        -0.9465
     30 N5          5.8177   13.4093    1.4151 N.pl3     1 <0>        -1.1610
     31 H1         -2.4410    0.0828   -0.7760 H         1 <0>         0.1013
     32 H2         -2.8270    1.0893    0.6609 H         1 <0>         0.1008
     33 H3         -1.6307   -0.2441    0.7935 H         1 <0>         0.1005
     34 H4         -0.8651    1.3350   -2.3552 H         1 <0>         0.1788
     35 H5          0.8204    2.6468   -3.5158 H         1 <0>         0.3736
     36 H6          4.9065    2.8854   -1.9729 H         1 <0>         0.1558
     37 H7          5.4744    0.5226   -2.3506 H         1 <0>         0.1664
     38 H8          2.3766    1.7394    1.2953 H         1 <0>         0.1540
     39 H9          0.6636    5.8240   -0.0264 H         1 <0>         0.4755
     40 H10         3.3286    6.2298    1.1467 H         1 <0>         0.1046
     41 H11         3.4673    6.4730   -0.6276 H         1 <0>         0.1055
     42 H12         1.6106    8.1296   -0.5457 H         1 <0>         0.1011
     43 H13         1.4718    7.8864    1.2286 H         1 <0>         0.1012
     44 H14         3.1939    8.7085    2.7256 H         1 <0>         0.1366
     45 H15         4.9875   10.3554    3.0916 H         1 <0>         0.1470
     46 H16         5.3181   10.9315   -1.1213 H         1 <0>         0.1486
     47 H17         3.5303    9.2784   -1.4876 H         1 <0>         0.1368
     48 H18         6.5863   14.1786    1.5806 H         1 <0>         0.4196
     49 H19         5.1229   13.3957    2.2678 H         1 <0>         0.4099
     50 H20         4.0757    4.5153    0.1082 H         1 <0>         0.4779
@<TRIPOS>BOND
     1    1    2 1
     2    1   31 1
     3    1   32 1
     4    1   33 1
     5    2    7 1
     6    2    3 2
     7    3    4 1
     8    3   34 1
     9    4    5 2
    10    4    6 1
    11    5   35 1
    12    6    7 1
    13    6    8 1
    14    8    9 1
    15    8   18 2
    16    9   10 1
    17    9   50 1
    18   10   15 ar
    19   10   11 ar
    20   11   12 ar
    21   11   36 1
    22   12   13 ar
    23   12   37 1
    24   13   14 ar
    25   13   17 1
    26   14   15 ar
    27   14   16 1
    28   15   38 1
    29   18   19 1
    30   18   39 1
    31   19   20 1
    32   19   40 1
    33   19   41 1
    34   20   21 1
    35   20   42 1
    36   20   43 1
    37   21   26 ar
    38   21   22 ar
    39   22   23 ar
    40   22   44 1
    41   23   24 ar
    42   23   45 1
    43   24   25 ar
    44   24   27 1
    45   25   26 ar
    46   25   46 1
    47   26   47 1
    48   27   28 2
    49   27   29 2
    50   27   30 1
    51   30   48 1
    52   30   49 1
@<TRIPOS>MOLECULE
ZINC27299562
   65    68     0     0     0
SMALL
USER_CHARGES
2-[4-amino-3-[2-oxo-2-(p-tolylamino)ethyl]sulfanyl-5-(p-tolyl)-1,2,4-triazol-1-ium-1-yl]-N-(p-tolyl)acetamide
@<TRIPOS>ATOM
      1 C1          6.6732  -13.7044   -1.3455 C.3       1 <0>        -0.1369
      2 C2          5.9973  -12.3674   -1.1823 C.ar      1 <0>        -0.0261
      3 C3          6.6094  -11.3721   -0.4414 C.ar      1 <0>        -0.1065
      4 C4          5.9961  -10.1459   -0.2881 C.ar      1 <0>        -0.0698
      5 C5          4.7551   -9.9107   -0.8820 C.ar      1 <0>        -0.0961
      6 C6          4.1404  -10.9210   -1.6234 C.ar      1 <0>        -0.0799
      7 C7          4.7671  -12.1408   -1.7737 C.ar      1 <0>        -0.1070
      8 C8          4.0918   -8.5993   -0.7215 C.cat     1 <0>         0.3429
      9 N1          4.6859   -7.3633   -0.8332 N.pl3     1 <0>        -0.1709
     10 C9          3.6917   -6.4548   -0.6072 C.2       1 <0>         0.1964
     11 N2          2.5902   -7.1329   -0.3734 N.2       1 <0>        -0.2568
     12 N3          2.8249   -8.3943   -0.4460 N.pl3     1 <0>        -0.2050
     13 C10         1.8271   -9.4480   -0.2449 C.3       1 <0>         0.0766
     14 C11         1.6926   -9.7380    1.2278 C.2       1 <0>         0.5030
     15 O1          2.3641   -9.1248    2.0305 O.2       1 <0>        -0.5020
     16 N4          0.8261  -10.6787    1.6530 N.am      1 <0>        -0.6654
     17 C12         0.6212  -10.8729    3.0235 C.ar      1 <0>         0.1267
     18 C13         0.3336  -12.1409    3.5113 C.ar      1 <0>        -0.1306
     19 C14         0.1362  -12.3300    4.8651 C.ar      1 <0>        -0.1005
     20 C15         0.2148  -11.2567    5.7333 C.ar      1 <0>        -0.0850
     21 C16         0.4963   -9.9919    5.2503 C.ar      1 <0>        -0.1018
     22 C17         0.6995   -9.7970    3.8981 C.ar      1 <0>        -0.1145
     23 C18        -0.0063  -11.4658    7.2093 C.3       1 <0>        -0.1229
     24 S1          3.8564   -4.7005   -0.6191 S.3       1 <0>         0.1697
     25 C19         2.1512   -4.2222   -0.2458 C.3       1 <0>        -0.1659
     26 C20         2.0488   -2.7192   -0.2036 C.2       1 <0>         0.5342
     27 O2          3.0320   -2.0385   -0.4060 O.2       1 <0>        -0.5065
     28 N5          0.8647   -2.1315    0.0590 N.am      1 <0>        -0.6698
     29 C21         0.7443   -0.7392   -0.0096 C.ar      1 <0>         0.1304
     30 C22         1.4853   -0.0215   -0.9393 C.ar      1 <0>        -0.1151
     31 C23         1.3638    1.3527   -1.0047 C.ar      1 <0>        -0.1016
     32 C24         0.5054    2.0140   -0.1457 C.ar      1 <0>        -0.0894
     33 C25        -0.2339    1.3024    0.7812 C.ar      1 <0>        -0.1007
     34 C26        -0.1169   -0.0720    0.8517 C.ar      1 <0>        -0.1342
     35 C27         0.3753    3.5136   -0.2199 C.3       1 <0>        -0.1211
     36 N6          5.9970   -7.0999   -1.1118 N.3       1 <0>        -0.7298
     37 H1          7.6338  -13.6974   -0.8097 H         1 <0>         0.0784
     38 H2          6.8506  -13.8976   -2.4138 H         1 <0>         0.0871
     39 H3          6.0285  -14.4940   -0.9322 H         1 <0>         0.0866
     40 H4          7.5697  -11.5553    0.0176 H         1 <0>         0.1472
     41 H5          6.4750   -9.3698    0.2904 H         1 <0>         0.1368
     42 H6          3.1783  -10.7467   -2.0820 H         1 <0>         0.1369
     43 H7          4.2946  -12.9219   -2.3507 H         1 <0>         0.1481
     44 H8          0.8572   -9.1153   -0.6432 H         1 <0>         0.1698
     45 H9          2.1460  -10.3601   -0.7706 H         1 <0>         0.1609
     46 H10         0.2800  -11.2938    0.9226 H         1 <0>         0.4426
     47 H11         0.2680  -12.9789    2.8331 H         1 <0>         0.1292
     48 H12        -0.0839  -13.3166    5.2455 H         1 <0>         0.1317
     49 H13         0.5571   -9.1557    5.9309 H         1 <0>         0.1282
     50 H14         0.9194   -8.8090    3.5214 H         1 <0>         0.1296
     51 H15         0.0955  -10.5049    7.7350 H         1 <0>         0.0683
     52 H16         0.7403  -12.1757    7.5949 H         1 <0>         0.0741
     53 H17        -1.0161  -11.8694    7.3752 H         1 <0>         0.0751
     54 H18         1.4815   -4.6136   -1.0257 H         1 <0>         0.1420
     55 H19         1.8593   -4.6372    0.7302 H         1 <0>         0.1412
     56 H20        -0.0070   -2.7464    0.3272 H         1 <0>         0.4402
     57 H21         2.1557   -0.5375   -1.6107 H         1 <0>         0.1318
     58 H22         1.9432    1.9117   -1.7246 H         1 <0>         0.1283
     59 H23        -0.9032    1.8219    1.4509 H         1 <0>         0.1298
     60 H24        -0.6949   -0.6273    1.5756 H         1 <0>         0.1273
     61 H25        -0.3477    3.8567    0.5348 H         1 <0>         0.0681
     62 H26         0.0243    3.8020   -1.2217 H         1 <0>         0.0729
     63 H27         1.3543    3.9766   -0.0270 H         1 <0>         0.0727
     64 H28         6.3478   -6.0592   -1.1737 H         1 <0>         0.4769
     65 H29         6.7020   -7.9285   -1.2742 H         1 <0>         0.4700
@<TRIPOS>BOND
     1    1    2 1
     2    1   37 1
     3    1   38 1
     4    1   39 1
     5    2    7 ar
     6    2    3 ar
     7    3    4 ar
     8    3   40 1
     9    4    5 ar
    10    4   41 1
    11    5    6 ar
    12    5    8 1
    13    6    7 ar
    14    6   42 1
    15    7   43 1
    16    8   12 2
    17    8    9 1
    18    9   10 1
    19    9   36 1
    20   10   11 2
    21   10   24 1
    22   11   12 1
    23   12   13 1
    24   13   14 1
    25   13   44 1
    26   13   45 1
    27   14   15 2
    28   14   16 am
    29   16   17 1
    30   16   46 1
    31   17   22 ar
    32   17   18 ar
    33   18   19 ar
    34   18   47 1
    35   19   20 ar
    36   19   48 1
    37   20   21 ar
    38   20   23 1
    39   21   22 ar
    40   21   49 1
    41   22   50 1
    42   23   51 1
    43   23   52 1
    44   23   53 1
    45   24   25 1
    46   25   26 1
    47   25   54 1
    48   25   55 1
    49   26   27 2
    50   26   28 am
    51   28   29 1
    52   28   56 1
    53   29   34 ar
    54   29   30 ar
    55   30   31 ar
    56   30   57 1
    57   31   32 ar
    58   31   58 1
    59   32   33 ar
    60   32   35 1
    61   33   34 ar
    62   33   59 1
    63   34   60 1
    64   35   61 1
    65   35   62 1
    66   35   63 1
    67   36   64 1
    68   36   65 1
@<TRIPOS>MOLECULE
ZINC40152850
   54    56     0     0     0
SMALL
USER_CHARGES

@<TRIPOS>ATOM
      1 C1         -0.3876    1.6045    0.6625 C.3       1 <0>        -0.1687
      2 C2         -0.4894    0.0779    0.6688 C.3       1 <0>         0.1331
      3 H1         -0.1871   -0.3246   -0.2980 H         1 <0>         0.1073
      4 C3         -1.9247   -0.3595    1.0035 C.3       1 <0>        -0.0913
      5 C4         -1.7909   -1.1610    2.2787 C.ar      1 <0>        -0.1326
      6 C5         -2.7413   -1.8042    3.0486 C.ar      1 <0>         0.0331
      7 C6         -2.3648   -2.4833    4.1922 C.ar      1 <0>        -0.6866
      8 C7         -1.0334   -2.5179    4.5648 C.ar      1 <0>         0.0215
      9 C8         -0.0820   -1.8778    3.7999 C.ar      1 <0>        -0.1837
     10 C9         -0.4545   -1.1898    2.6434 C.ar      1 <0>         0.1752
     11 N1          0.3440   -0.4828    1.7358 N.am      1 <0>        -0.5287
     12 C10         1.6808   -0.3385    1.8287 C.2       1 <0>         0.5244
     13 O1          2.2822    0.2955    0.9876 O.2       1 <0>        -0.4965
     14 C11         2.4283   -0.9651    2.9775 C.3       1 <0>        -0.0508
     15 N2          3.8368   -0.5509    2.9292 N.4       1 <0>        -0.3593
     16 C12         3.9326    0.8910    3.1930 C.3       1 <0>         0.0334
     17 C13         5.3614    1.3390    3.0228 C.ar      1 <0>        -0.1490
     18 C14         6.2267    1.3134    4.1006 C.ar      1 <0>        -0.0972
     19 C15         7.5373    1.7238    3.9448 C.ar      1 <0>        -0.0873
     20 C16         7.9831    2.1602    2.7102 C.ar      1 <0>        -0.0623
     21 C17         7.1169    2.1856    1.6320 C.ar      1 <0>        -0.0847
     22 C18         5.8079    1.7701    1.7875 C.ar      1 <0>        -0.0771
     23 Br1         9.7759    2.7224    2.4966 Br        1 <0>        -0.0147
     24 C19         4.5987   -1.2866    3.9471 C.3       1 <0>        -0.0450
     25 C20         4.6365   -2.7494    3.5865 C.2       1 <0>         0.5080
     26 O2          4.1121   -3.1355    2.5633 O.2       1 <0>        -0.5284
     27 N3          5.2530   -3.6285    4.4010 N.am      1 <0>        -0.8203
     28 S1         -3.5780   -3.3032    5.1723 S.o2      1 <0>         2.7029
     29 O3         -3.0399   -3.4045    6.4836 O.2       1 <0>        -0.9565
     30 O4         -4.8174   -2.6618    4.9048 O.2       1 <0>        -0.9506
     31 N4         -3.7109   -4.8494    4.5945 N.pl3     1 <0>        -1.2462
     32 H2          0.6445    1.8990    0.4725 H         1 <0>         0.0752
     33 H3         -1.0305    2.0083   -0.1196 H         1 <0>         0.0878
     34 H4         -0.7042    1.9937    1.6302 H         1 <0>         0.0652
     35 H5         -2.5593    0.5115    1.1667 H         1 <0>         0.1094
     36 H6         -2.3288   -0.9811    0.2044 H         1 <0>         0.1079
     37 H7         -3.7806   -1.7758    2.7564 H         1 <0>         0.1566
     38 H8         -0.7382   -3.0479    5.4582 H         1 <0>         0.1565
     39 H9          0.9560   -1.9084    4.0965 H         1 <0>         0.1307
     40 H10         1.9860   -0.6399    3.9192 H         1 <0>         0.1669
     41 H11         2.3660   -2.0507    2.9026 H         1 <0>         0.1801
     42 H12         3.2964    1.4317    2.4923 H         1 <0>         0.1529
     43 H13         3.6065    1.0962    4.2127 H         1 <0>         0.1428
     44 H14         5.8784    0.9731    5.0646 H         1 <0>         0.1426
     45 H15         8.2131    1.7041    4.7870 H         1 <0>         0.1482
     46 H16         7.4646    2.5262    0.6679 H         1 <0>         0.1482
     47 H17         5.1326    1.7860    0.9448 H         1 <0>         0.1463
     48 H18         5.6158   -0.8971    3.9918 H         1 <0>         0.1700
     49 H19         4.1197   -1.1641    4.9185 H         1 <0>         0.1673
     50 H20         5.6725   -3.3197    5.2194 H         1 <0>         0.4152
     51 H21         5.2773   -4.5700    4.1690 H         1 <0>         0.4259
     52 H22        -3.9563   -5.5717    5.1936 H         1 <0>         0.4258
     53 H23        -3.5433   -5.0329    3.6568 H         1 <0>         0.4179
     54 H24         4.2152   -0.7515    2.0156 H         1 <0>         0.4391
@<TRIPOS>BOND
     1    1    2 1
     2    1   32 1
     3    1   33 1
     4    1   34 1
     5    2    3 1
     6    2   11 1
     7    2    4 1
     8    4    5 1
     9    4   35 1
    10    4   36 1
    11    5   10 ar
    12    5    6 ar
    13    6    7 ar
    14    6   37 1
    15    7    8 ar
    16    7   28 1
    17    8    9 ar
    18    8   38 1
    19    9   10 ar
    20    9   39 1
    21   10   11 1
    22   11   12 am
    23   12   13 2
    24   12   14 1
    25   14   15 1
    26   14   40 1
    27   14   41 1
    28   15   16 1
    29   15   24 1
    30   15   54 1
    31   16   17 1
    32   16   42 1
    33   16   43 1
    34   17   22 ar
    35   17   18 ar
    36   18   19 ar
    37   18   44 1
    38   19   20 ar
    39   19   45 1
    40   20   21 ar
    41   20   23 1
    42   21   22 ar
    43   21   46 1
    44   22   47 1
    45   24   25 1
    46   24   48 1
    47   24   49 1
    48   25   26 2
    49   25   27 am
    50   27   50 1
    51   27   51 1
    52   28   29 2
    53   28   30 2
    54   28   31 1
    55   31   52 1
    56   31   53 1
@<TRIPOS>MOLECULE
ZINC60341423
   64    67     0     0     0
SMALL
USER_CHARGES

@<TRIPOS>ATOM
      1 C1         -2.6789   -3.3863    3.6968 C.3       1 <0>        -0.1150
      2 C2         -1.4785   -2.7567    4.3553 C.2       1 <0>         0.2315
      3 C3         -1.5957   -1.5046    4.9709 C.2       1 <0>        -0.1979
      4 C4         -0.5074   -0.9481    5.5605 C.2       1 <0>         0.2160
      5 N1          0.6774   -1.6232    5.5395 N.pl3     1 <0>        -0.3058
      6 C5          0.7512   -2.8439    4.9282 C.2       1 <0>         0.3221
      7 N2         -0.3245   -3.3866    4.3554 N.2       1 <0>        -0.4683
      8 C6          2.0799   -3.2867    5.0672 C.2       1 <0>        -0.1848
      9 C7          2.7725   -2.2894    5.7753 C.2       1 <0>         0.1540
     10 N3          1.9434   -1.3158    6.0495 N.2       1 <0>        -0.3012
     11 C8          2.6229   -4.5190    4.5800 C.1       1 <0>         0.2941
     12 N4          3.0537   -5.4965    4.1934 N.1       1 <0>        -0.4196
     13 C9         -0.6066    0.3986    6.2294 C.3       1 <0>        -0.1266
     14 C10        -2.9179   -0.7814    4.9781 C.3       1 <0>        -0.0494
     15 C11        -3.0736    0.0097    3.6778 C.3       1 <0>        -0.1431
     16 C12        -4.3957    0.7329    3.6851 C.2       1 <0>         0.5208
     17 O1         -5.1402    0.6260    4.6366 O.2       1 <0>        -0.5103
     18 N5         -4.7509    1.4984    2.6342 N.am      1 <0>        -0.6793
     19 C13        -6.0176    2.0916    2.5972 C.ar      1 <0>         0.1852
     20 C14        -6.6870    2.2282    1.3881 C.ar      1 <0>        -0.1435
     21 C15        -7.9372    2.8143    1.3550 C.ar      1 <0>        -0.0739
     22 C16        -8.5224    3.2648    2.5240 C.ar      1 <0>        -0.1794
     23 C17        -7.8583    3.1307    3.7295 C.ar      1 <0>        -0.0705
     24 C18        -6.6106    2.5399    3.7702 C.ar      1 <0>        -0.1199
     25 C19        -9.8867    3.9038    2.4842 C.3       1 <0>         0.0471
     26 N6        -10.9166    2.8705    2.6558 N.4       1 <0>        -0.3810
     27 C20       -10.8771    1.9481    1.5146 C.3       1 <0>        -0.0164
     28 C21       -11.8928    0.8236    1.7274 C.3       1 <0>        -0.1413
     29 C22       -13.2952    1.4264    1.8503 C.3       1 <0>        -0.1310
     30 C23       -13.3050    2.4420    2.9965 C.3       1 <0>        -0.1330
     31 H1        -13.0903    1.9326    3.9359 H         1 <0>         0.1223
     32 C24       -12.2370    3.5065    2.7366 C.3       1 <0>         0.0101
     33 C25       -14.6600    3.0965    3.0772 C.2       1 <0>         0.5285
     34 O2        -14.7622    4.2977    2.9441 O.2       1 <0>        -0.5321
     35 N7        -15.7584    2.3471    3.2975 N.am      1 <0>        -0.8424
     36 H2         -2.3988   -4.3535    3.2795 H         1 <0>         0.0918
     37 H3         -3.4681   -3.5242    4.4358 H         1 <0>         0.0955
     38 H4         -3.0380   -2.7365    2.8987 H         1 <0>         0.0896
     39 H5          3.8169   -2.3219    6.0484 H         1 <0>         0.2146
     40 H6         -0.8764    0.2650    7.2770 H         1 <0>         0.1020
     41 H7          0.3545    0.9085    6.1639 H         1 <0>         0.0963
     42 H8         -1.3698    0.9964    5.7311 H         1 <0>         0.0964
     43 H9         -3.7279   -1.5060    5.0618 H         1 <0>         0.0987
     44 H10        -2.9532   -0.0974    5.8260 H         1 <0>         0.0948
     45 H11        -2.2636    0.7343    3.5941 H         1 <0>         0.1056
     46 H12        -3.0383   -0.6743    2.8299 H         1 <0>         0.1075
     47 H13        -4.1284    1.6380    1.9035 H         1 <0>         0.4199
     48 H14        -6.2303    1.8769    0.4747 H         1 <0>         0.1391
     49 H15        -8.4581    2.9212    0.4150 H         1 <0>         0.1356
     50 H16        -8.3179    3.4839    4.6408 H         1 <0>         0.1352
     51 H17        -6.0946    2.4308    4.7127 H         1 <0>         0.1515
     52 H18        -9.9687    4.6356    3.2878 H         1 <0>         0.1385
     53 H19       -10.0271    4.4010    1.5244 H         1 <0>         0.1367
     54 H20       -11.1219    2.4902    0.6012 H         1 <0>         0.1302
     55 H21        -9.8775    1.5224    1.4266 H         1 <0>         0.1346
     56 H22       -11.8632    0.1409    0.8783 H         1 <0>         0.1176
     57 H23       -11.6487    0.2807    2.6405 H         1 <0>         0.0910
     58 H24       -13.5601    1.9260    0.9184 H         1 <0>         0.0903
     59 H25       -14.0152    0.6350    2.0583 H         1 <0>         0.0995
     60 H26       -12.2414    4.2313    3.5508 H         1 <0>         0.1400
     61 H27       -12.4528    4.0154    1.7972 H         1 <0>         0.1388
     62 H28       -15.6767    1.3865    3.4040 H         1 <0>         0.4063
     63 H29       -16.6306    2.7685    3.3495 H         1 <0>         0.4153
     64 H30       -10.7387    2.3578    3.5064 H         1 <0>         0.4216
@<TRIPOS>BOND
     1    1    2 1
     2    1   36 1
     3    1   37 1
     4    1   38 1
     5    2    7 2
     6    2    3 1
     7    3    4 2
     8    3   14 1
     9    4    5 1
    10    4   13 1
    11    5   10 1
    12    5    6 1
    13    6    7 1
    14    6    8 2
    15    8    9 1
    16    8   11 1
    17    9   10 2
    18    9   39 1
    19   11   12 3
    20   13   40 1
    21   13   41 1
    22   13   42 1
    23   14   15 1
    24   14   43 1
    25   14   44 1
    26   15   16 1
    27   15   45 1
    28   15   46 1
    29   16   17 2
    30   16   18 am
    31   18   19 1
    32   18   47 1
    33   19   24 ar
    34   19   20 ar
    35   20   21 ar
    36   20   48 1
    37   21   22 ar
    38   21   49 1
    39   22   23 ar
    40   22   25 1
    41   23   24 ar
    42   23   50 1
    43   24   51 1
    44   25   26 1
    45   25   52 1
    46   25   53 1
    47   26   32 1
    48   26   27 1
    49   26   64 1
    50   27   28 1
    51   27   54 1
    52   27   55 1
    53   28   29 1
    54   28   56 1
    55   28   57 1
    56   29   30 1
    57   29   58 1
    58   29   59 1
    59   30   31 1
    60   30   32 1
    61   30   33 1
    62   32   60 1
    63   32   61 1
    64   33   34 2
    65   33   35 am
    66   35   62 1
    67   35   63 1
@<TRIPOS>MOLECULE
ZINC04494803
   60    61     0     0     0
SMALL
USER_CHARGES
4-[2-[[4-butyl-5-(1-dimethylaminopropyl)-1,2,4-triazol-3-yl]sulfanyl]acetyl]aminobenzamide
@<TRIPOS>ATOM
      1 C1         -1.2778    4.1018   -6.9249 C.3       1 <0>        -0.1561
      2 C2         -1.5206    2.7132   -6.3303 C.3       1 <0>        -0.1210
      3 C3         -0.3262    2.3146   -5.4611 C.3       1 <0>        -0.1392
      4 C4         -0.5690    0.9259   -4.8665 C.3       1 <0>         0.0913
      5 N1          0.5747    0.5443   -4.0342 N.pl3     1 <0>        -0.4412
      6 C5          1.6982   -0.1263   -4.4321 C.2       1 <0>         0.1183
      7 N2          2.4610   -0.2610   -3.3843 N.2       1 <0>        -0.2485
      8 N3          1.9030    0.2788   -2.3600 N.2       1 <0>        -0.2828
      9 C6          0.7401    0.7842   -2.7003 C.2       1 <0>         0.1727
     10 S1         -0.3899    1.6207   -1.6382 S.3       1 <0>         0.1172
     11 C7          0.5225    1.5337   -0.0775 C.3       1 <0>        -0.1549
     12 C8         -0.2758    2.2065    1.0093 C.2       1 <0>         0.5348
     13 O1         -1.3554    2.6965    0.7538 O.2       1 <0>        -0.5002
     14 N4          0.2099    2.2636    2.2652 N.am      1 <0>        -0.6614
     15 C9         -0.5686    2.8001    3.2901 C.ar      1 <0>         0.1621
     16 C10        -1.4027    3.8837    3.0336 C.ar      1 <0>        -0.1260
     17 C11        -2.1763    4.4127    4.0421 C.ar      1 <0>        -0.0659
     18 C12        -2.1152    3.8667    5.3271 C.ar      1 <0>        -0.1470
     19 C13        -1.2723    2.7817    5.5825 C.ar      1 <0>        -0.0376
     20 C14        -0.5053    2.2541    4.5683 C.ar      1 <0>        -0.1454
     21 C15        -2.9392    4.4346    6.4120 C.2       1 <0>         0.5625
     22 O2         -2.8853    3.9583    7.5294 O.2       1 <0>        -0.5366
     23 N5         -3.7516    5.4810    6.1640 N.am      1 <0>        -0.8500
     24 C16         1.9985   -0.6183   -5.8245 C.3       1 <0>         0.1348
     25 H1          1.1316   -0.4513   -6.4637 H         1 <0>         0.1473
     26 C17         3.2007    0.1434   -6.3863 C.3       1 <0>        -0.1441
     27 C18         3.4600   -0.3037   -7.8264 C.3       1 <0>        -0.1703
     28 C19         3.4279   -2.3252   -4.8728 C.3       1 <0>        -0.0574
     29 C20         1.1204   -2.8345   -5.4006 C.3       1 <0>        -0.0445
     30 H2         -1.1570    4.8260   -6.1192 H         1 <0>         0.0595
     31 H3         -0.3747    4.0830   -7.5349 H         1 <0>         0.0554
     32 H4         -2.1287    4.3858   -7.5441 H         1 <0>         0.0644
     33 H5         -1.6414    1.9890   -7.1359 H         1 <0>         0.0668
     34 H6         -2.4237    2.7320   -5.7202 H         1 <0>         0.0729
     35 H7         -0.2054    3.0388   -4.6554 H         1 <0>         0.0825
     36 H8          0.5769    2.2958   -6.0711 H         1 <0>         0.0716
     37 H9         -0.6898    0.2018   -5.6721 H         1 <0>         0.1019
     38 H10        -1.4721    0.9447   -4.2564 H         1 <0>         0.1143
     39 H11         0.6899    0.4898    0.1879 H         1 <0>         0.1358
     40 H12         1.4821    2.0386   -0.1890 H         1 <0>         0.1363
     41 H13         1.1011    1.9315    2.4561 H         1 <0>         0.4189
     42 H14        -1.4465    4.3077    2.0413 H         1 <0>         0.1446
     43 H15        -2.8267    5.2512    3.8414 H         1 <0>         0.1329
     44 H16        -1.2230    2.3572    6.5744 H         1 <0>         0.1451
     45 H17         0.1460    1.4154    4.7649 H         1 <0>         0.1369
     46 H18        -3.7947    5.8610    5.2725 H         1 <0>         0.4009
     47 H19        -4.2932    5.8542    6.8770 H         1 <0>         0.4082
     48 H20         2.9929    1.2133   -6.3698 H         1 <0>         0.1117
     49 H21         4.0801   -0.0654   -5.7771 H         1 <0>         0.1025
     50 H22         3.5849   -1.3861   -7.8539 H         1 <0>         0.0528
     51 H23         2.6145   -0.0195   -8.4529 H         1 <0>         0.0758
     52 H24         4.3653    0.1761   -8.1983 H         1 <0>         0.0915
     53 H25         3.1276   -2.1058   -3.8482 H         1 <0>         0.1435
     54 H26         3.7133   -3.3743   -4.9510 H         1 <0>         0.1231
     55 H27         4.2758   -1.6968   -5.1454 H         1 <0>         0.1257
     56 H28         0.3270   -2.6687   -6.1293 H         1 <0>         0.1216
     57 H29         1.3755   -3.8940   -5.3759 H         1 <0>         0.1315
     58 H30         0.7794   -2.5199   -4.4142 H         1 <0>         0.1155
     59 N6          2.3133   -2.0623   -5.8073 N.4       1 <0>        -0.3908
     60 H31         2.5935   -2.3539   -6.7510 H         1 <0>         0.4354
@<TRIPOS>BOND
     1    1    2 1
     2    1   30 1
     3    1   31 1
     4    1   32 1
     5    2    3 1
     6    2   33 1
     7    2   34 1
     8    3    4 1
     9    3   35 1
    10    3   36 1
    11    4    5 1
    12    4   37 1
    13    4   38 1
    14    5    9 1
    15    5    6 1
    16    6    7 2
    17    6   24 1
    18    7    8 1
    19    8    9 2
    20    9   10 1
    21   10   11 1
    22   11   12 1
    23   11   39 1
    24   11   40 1
    25   12   13 2
    26   12   14 am
    27   14   15 1
    28   14   41 1
    29   15   20 ar
    30   15   16 ar
    31   16   17 ar
    32   16   42 1
    33   17   18 ar
    34   17   43 1
    35   18   19 ar
    36   18   21 1
    37   19   20 ar
    38   19   44 1
    39   20   45 1
    40   21   22 2
    41   21   23 am
    42   23   46 1
    43   23   47 1
    44   24   25 1
    45   24   26 1
    46   24   59 1
    47   26   27 1
    48   26   48 1
    49   26   49 1
    50   27   50 1
    51   27   51 1
    52   27   52 1
    53   28   53 1
    54   28   54 1
    55   28   55 1
    56   28   59 1
    57   29   56 1
    58   29   57 1
    59   29   58 1
    60   29   59 1
    61   59   60 1
@<TRIPOS>MOLECULE
ZINC09683434
   54    57     0     0     0
SMALL
USER_CHARGES
7-[2-[[5-(2-furyl)-1,3,4-oxadiazol-2-yl]methyl-propyl-amino]acetyl]amino-6-thiabicyclo[3.3.0]octa-7,9-diene-8-carboxamide
@<TRIPOS>ATOM
      1 C1          4.3242    1.5388    2.2709 C.3       1 <0>        -0.1553
      2 C2          3.4843    2.0019    1.0788 C.3       1 <0>        -0.1517
      3 C3          3.2381    3.5084    1.1830 C.3       1 <0>        -0.0157
      4 C4          2.6978    5.4252   -0.1942 C.3       1 <0>         0.1123
      5 C5          4.1444    5.7433   -0.4722 C.2       1 <0>         0.0735
      6 N1          4.7082    5.7970   -1.6462 N.2       1 <0>        -0.1991
      7 N2          5.9521    6.0981   -1.5139 N.2       1 <0>        -0.2546
      8 C6          6.2297    6.2401   -0.2361 C.2       1 <0>         0.3081
      9 O1          5.0876    6.0174    0.4469 O.3       1 <0>        -0.2098
     10 C7          7.5395    6.5777    0.3402 C.2       1 <0>        -0.0122
     11 C8          8.6881    6.8008   -0.3589 C.2       1 <0>        -0.0806
     12 C9          9.6885    7.0902    0.5876 C.2       1 <0>        -0.2186
     13 C10         9.1110    7.0309    1.8050 C.2       1 <0>         0.0297
     14 O2          7.8128    6.7262    1.6518 O.3       1 <0>        -0.1639
     15 C11         1.1196    3.6007    0.0141 C.3       1 <0>        -0.0208
     16 C12         0.5553    3.6347   -1.3828 C.2       1 <0>         0.4894
     17 O3          1.2461    4.0084   -2.3070 O.2       1 <0>        -0.4869
     18 N3         -0.7171    3.2498   -1.6052 N.am      1 <0>        -0.5897
     19 C13        -1.2363    3.2810   -2.8905 C.2       1 <0>         0.0223
     20 C14        -2.5045    2.9233   -3.3150 C.2       1 <0>        -0.1741
     21 C15        -2.8038    3.0551   -4.7404 C.2       1 <0>        -0.1004
     22 C16        -1.7890    3.5097   -5.4974 C.2       1 <0>        -0.2067
     23 S1         -0.4540    3.7695   -4.3550 S.3       1 <0>         0.2758
     24 C17        -2.1714    3.6154   -6.9489 C.3       1 <0>        -0.0383
     25 C18        -3.7154    3.5724   -6.9486 C.3       1 <0>        -0.1168
     26 C19        -4.0080    2.7988   -5.6476 C.3       1 <0>        -0.0641
     27 C20        -3.5123    2.4340   -2.3691 C.2       1 <0>         0.5752
     28 O4         -4.2624    3.2188   -1.8190 O.2       1 <0>        -0.5256
     29 N4         -3.6081    1.1150   -2.1089 N.am      1 <0>        -0.8456
     30 H1          5.2793    2.0641    2.2684 H         1 <0>         0.0667
     31 H2          3.7921    1.7568    3.1968 H         1 <0>         0.0706
     32 H3          4.4997    0.4656    2.1967 H         1 <0>         0.0811
     33 H4          2.5293    1.4766    1.0813 H         1 <0>         0.0900
     34 H5          4.0165    1.7839    0.1529 H         1 <0>         0.0874
     35 H6          4.1924    4.0271    1.2737 H         1 <0>         0.1307
     36 H7          2.6264    3.7167    2.0608 H         1 <0>         0.1467
     37 H8          2.0847    5.7609   -1.0305 H         1 <0>         0.1780
     38 H9          2.3819    5.9355    0.7157 H         1 <0>         0.1674
     39 H10         8.8073    6.7634   -1.4317 H         1 <0>         0.1733
     40 H11        10.7236    7.3165    0.3787 H         1 <0>         0.1722
     41 H12         9.6099    7.2039    2.7471 H         1 <0>         0.2251
     42 H13         0.5746    4.3043    0.6434 H         1 <0>         0.1777
     43 H14         1.0192    2.5950    0.4222 H         1 <0>         0.1735
     44 H15        -1.2708    2.9547   -0.8654 H         1 <0>         0.4274
     45 H16        -1.8174    4.5574   -7.3677 H         1 <0>         0.0854
     46 H17        -1.7677    2.7730   -7.5107 H         1 <0>         0.0918
     47 H18        -4.1337    4.5781   -6.9070 H         1 <0>         0.0807
     48 H19        -4.0908    3.0311   -7.8171 H         1 <0>         0.0901
     49 H20        -4.9183    3.1756   -5.1813 H         1 <0>         0.0782
     50 H21        -4.1048    1.7333   -5.8560 H         1 <0>         0.0849
     51 H22        -3.0103    0.4895   -2.5473 H         1 <0>         0.4045
     52 H23        -4.2748    0.7913   -1.4832 H         1 <0>         0.4078
     53 N5          2.5517    3.9620   -0.0450 N.4       1 <0>        -0.3894
     54 H24         2.9790    3.4997   -0.8561 H         1 <0>         0.4422
@<TRIPOS>BOND
     1    1    2 1
     2    1   30 1
     3    1   31 1
     4    1   32 1
     5    2    3 1
     6    2   33 1
     7    2   34 1
     8    3   35 1
     9    3   36 1
    10    3   53 1
    11    4    5 1
    12    4   37 1
    13    4   38 1
    14    4   53 1
    15    5    9 1
    16    5    6 2
    17    6    7 1
    18    7    8 2
    19    8    9 1
    20    8   10 1
    21   10   14 1
    22   10   11 2
    23   11   12 1
    24   11   39 1
    25   12   13 2
    26   12   40 1
    27   13   14 1
    28   13   41 1
    29   15   16 1
    30   15   42 1
    31   15   43 1
    32   15   53 1
    33   16   17 2
    34   16   18 am
    35   18   19 1
    36   18   44 1
    37   19   23 1
    38   19   20 2
    39   20   21 1
    40   20   27 1
    41   21   26 1
    42   21   22 2
    43   22   23 1
    44   22   24 1
    45   24   25 1
    46   24   45 1
    47   24   46 1
    48   25   26 1
    49   25   47 1
    50   25   48 1
    51   26   49 1
    52   26   50 1
    53   27   28 2
    54   27   29 am
    55   29   51 1
    56   29   52 1
    57   53   54 1
@<TRIPOS>MOLECULE
ZINC04635149
   51    53     0     0     0
SMALL
USER_CHARGES
(5S)-4-(4-chlorobenzoyl)-3-hydroxy-1-[2-(2-hydroxyethylamino)ethyl]-5-(4-hydroxyphenyl)-5H-pyrrol-2-one
@<TRIPOS>ATOM
      1 C1          0.2635    0.6762   -0.6645 C.ar      1 <0>        -0.0816
      2 C2          0.4071    2.0002   -1.0317 C.ar      1 <0>        -0.1410
      3 C3          1.6689    2.5123   -1.2968 C.ar      1 <0>         0.1293
      4 C4          2.7836    1.6931   -1.1919 C.ar      1 <0>        -0.1423
      5 C5          2.6346    0.3696   -0.8248 C.ar      1 <0>        -0.0770
      6 C6          1.3759   -0.1384   -0.5611 C.ar      1 <0>        -0.1306
      7 C7          1.2164   -1.5822   -0.1599 C.3       1 <0>         0.2317
      8 H1          0.2468   -1.7341    0.3144 H         1 <0>         0.1199
      9 C8          1.3478   -2.4755   -1.3713 C.2       1 <0>        -0.2174
     10 C9          2.4056   -3.2888   -1.1440 C.2       1 <0>         0.0931
     11 C10         2.9872   -2.9711    0.1774 C.2       1 <0>         0.5325
     12 O1          3.9486   -3.5285    0.6683 O.2       1 <0>        -0.4928
     13 N1          2.2935   -1.9730    0.7573 N.am      1 <0>        -0.6003
     14 C11         2.5654   -1.3812    2.0695 C.3       1 <0>         0.1133
     15 C12         1.7842   -2.1411    3.1434 C.3       1 <0>        -0.0301
     16 C13         1.3219   -2.2533    5.5175 C.3       1 <0>         0.0018
     17 C14         1.6306   -1.6081    6.8701 C.3       1 <0>         0.0437
     18 O2          1.1261   -0.2712    6.8863 O.3       1 <0>        -0.5826
     19 O3          2.8590   -4.2407   -1.9916 O.3       1 <0>        -0.4150
     20 C15         0.4941   -2.4638   -2.5630 C.2       1 <0>         0.4674
     21 O4          0.9633   -2.1629   -3.6445 O.2       1 <0>        -0.4106
     22 C16        -0.9365   -2.8175   -2.4507 C.ar      1 <0>        -0.1588
     23 C17        -1.4511   -3.2820   -1.2379 C.ar      1 <0>        -0.0644
     24 C18        -2.7875   -3.6053   -1.1381 C.ar      1 <0>        -0.1226
     25 C19        -3.6174   -3.4812   -2.2406 C.ar      1 <0>        -0.0030
     26 C20        -3.1120   -3.0261   -3.4476 C.ar      1 <0>        -0.1156
     27 C21        -1.7785   -2.6941   -3.5586 C.ar      1 <0>        -0.0423
     28 Cl1        -5.2977   -3.8972   -2.1089 Cl        1 <0>        -0.0494
     29 O5          1.8127    3.8143   -1.6586 O.3       1 <0>        -0.4948
     30 H2         -0.7185    0.2771   -0.4577 H         1 <0>         0.1324
     31 H3         -0.4626    2.6348   -1.1166 H         1 <0>         0.1377
     32 H4          3.7669    2.0895   -1.3974 H         1 <0>         0.1352
     33 H5          3.5020   -0.2686   -0.7433 H         1 <0>         0.1212
     34 H6          3.6324   -1.4452    2.2829 H         1 <0>         0.1129
     35 H7          2.2573   -0.3357    2.0675 H         1 <0>         0.1134
     36 H8          0.7172   -2.0771    2.9301 H         1 <0>         0.1376
     37 H9          2.0923   -3.1866    3.1454 H         1 <0>         0.1376
     38 H10         0.2516   -2.1901    5.3206 H         1 <0>         0.1394
     39 H11         1.6268   -3.2996    5.5360 H         1 <0>         0.1450
     40 H12         1.1567   -2.1849    7.6643 H         1 <0>         0.0974
     41 H13         2.7091   -1.5915    7.0270 H         1 <0>         0.0738
     42 H14         1.2866    0.1996    7.7156 H         1 <0>         0.4114
     43 H15         3.6501   -4.6986   -1.5861 H         1 <0>         0.4177
     44 H16        -0.8041   -3.3837   -0.3791 H         1 <0>         0.1324
     45 H17        -3.1875   -3.9603   -0.1998 H         1 <0>         0.1416
     46 H18        -3.7640   -2.9308   -4.3033 H         1 <0>         0.1465
     47 H19        -1.3858   -2.3391   -4.4999 H         1 <0>         0.1476
     48 H20         1.9409    4.4177   -0.9138 H         1 <0>         0.3973
     49 N2          2.0634   -1.5393    4.4610 N.4       1 <0>        -0.5137
     50 H21         1.7747   -0.5540    4.4513 H         1 <0>         0.4413
     51 H22         3.0700   -1.5991    4.6542 H         1 <0>         0.4339
@<TRIPOS>BOND
     1    1    6 ar
     2    1    2 ar
     3    1   30 1
     4    2    3 ar
     5    2   31 1
     6    3    4 ar
     7    3   29 1
     8    4    5 ar
     9    4   32 1
    10    5    6 ar
    11    5   33 1
    12    6    7 1
    13    7    8 1
    14    7   13 1
    15    7    9 1
    16    9   10 2
    17    9   20 1
    18   10   11 1
    19   10   19 1
    20   11   12 2
    21   11   13 am
    22   13   14 1
    23   14   15 1
    24   14   34 1
    25   14   35 1
    26   15   36 1
    27   15   37 1
    28   15   49 1
    29   16   17 1
    30   16   38 1
    31   16   39 1
    32   16   49 1
    33   17   18 1
    34   17   40 1
    35   17   41 1
    36   18   42 1
    37   19   43 1
    38   20   21 2
    39   20   22 1
    40   22   27 ar
    41   22   23 ar
    42   23   24 ar
    43   23   44 1
    44   24   25 ar
    45   24   45 1
    46   25   26 ar
    47   25   28 1
    48   26   27 ar
    49   26   46 1
    50   27   47 1
    51   29   48 1
    52   49   50 1
    53   49   51 1
@<TRIPOS>MOLECULE
ZINC19891088
   59    62     0     0     0
SMALL
USER_CHARGES

@<TRIPOS>ATOM
      1 C1          4.2202    1.8305   -2.2753 C.3       1 <0>         0.0253
      2 O1          4.0435    0.4646   -2.6563 O.3       1 <0>        -0.3161
      3 C2          3.3326   -0.3252   -1.8091 C.ar      1 <0>         0.1765
      4 C3          2.8110    0.2060   -0.6376 C.ar      1 <0>        -0.2464
      5 C4          2.0880   -0.5956    0.2249 C.ar      1 <0>        -0.0302
      6 C5          1.8818   -1.9282   -0.0756 C.ar      1 <0>        -0.2238
      7 C6          2.4015   -2.4655   -1.2467 C.ar      1 <0>         0.2370
      8 C7          3.1233   -1.6600   -2.1171 C.ar      1 <0>        -0.2246
      9 N1          2.1931   -3.8127   -1.5507 N.pl3     1 <0>        -0.6414
     10 C8          1.5192   -4.7078   -0.5975 C.3       1 <0>         0.1013
     11 C9          2.3787   -5.9636   -0.4194 C.3       1 <0>        -0.0208
     12 N2          2.6429   -6.5650   -1.7327 N.4       1 <0>        -0.3786
     13 C10         3.4476   -5.6481   -2.5498 C.3       1 <0>        -0.0241
     14 C11         2.6360   -4.3753   -2.8358 C.3       1 <0>         0.1013
     15 C12         3.3729   -7.8272   -1.5533 C.3       1 <0>         0.0763
     16 C13         3.5374   -8.5064   -2.8885 C.ar      1 <0>         0.3793
     17 N3          2.6148   -9.3505   -3.3166 N.ar      1 <0>        -0.6220
     18 C14         2.7565   -9.9524   -4.4953 C.ar      1 <0>         0.6402
     19 N4          3.8271   -9.7037   -5.2418 N.ar      1 <0>        -0.6216
     20 C15         4.7523   -8.8546   -4.8080 C.ar      1 <0>         0.6375
     21 N5          4.6008   -8.2524   -3.6303 N.ar      1 <0>        -0.6197
     22 N6          5.8668   -8.5928   -5.5802 N.pl3     1 <0>        -0.5990
     23 C16         6.0844   -9.3118   -6.7624 C.ar      1 <0>         0.1094
     24 C17         5.6352  -10.6196   -6.8738 C.ar      1 <0>        -0.0750
     25 C18         5.8507  -11.3268   -8.0415 C.ar      1 <0>        -0.1365
     26 C19         6.5139  -10.7343   -9.1003 C.ar      1 <0>        -0.0815
     27 C20         6.9649   -9.4314   -8.9964 C.ar      1 <0>        -0.1882
     28 C21         6.7475   -8.7136   -7.8317 C.ar      1 <0>         0.1119
     29 O2          7.1851   -7.4301   -7.7302 O.3       1 <0>        -0.3226
     30 C22         7.8569   -6.8821   -8.8662 C.3       1 <0>         0.0272
     31 N7          1.7930  -10.8339   -4.9412 N.pl3     1 <0>        -0.7899
     32 H1          3.2458    2.3092   -2.1768 H         1 <0>         0.0602
     33 H2          4.7457    1.8766   -1.3215 H         1 <0>         0.0600
     34 H3          4.8037    2.3476   -3.0370 H         1 <0>         0.1052
     35 H4          2.9707    1.2473   -0.3997 H         1 <0>         0.1315
     36 H5          1.6836   -0.1797    1.1359 H         1 <0>         0.1313
     37 H6          1.3166   -2.5528    0.6004 H         1 <0>         0.1253
     38 H7          3.5243   -2.0738   -3.0305 H         1 <0>         0.1304
     39 H8          1.4055   -4.2027    0.3617 H         1 <0>         0.1311
     40 H9          0.5397   -4.9864   -0.9864 H         1 <0>         0.0895
     41 H10         3.3231   -5.6937    0.0533 H         1 <0>         0.1382
     42 H11         1.8495   -6.6802    0.2087 H         1 <0>         0.1463
     43 H12         4.3596   -5.3877   -2.0127 H         1 <0>         0.1407
     44 H13         3.7061   -6.1323   -3.4916 H         1 <0>         0.1376
     45 H14         1.7674   -4.6209   -3.4468 H         1 <0>         0.0862
     46 H15         3.2611   -3.6503   -3.3571 H         1 <0>         0.1287
     47 H16         4.3547   -7.6216   -1.1268 H         1 <0>         0.1583
     48 H17         2.8137   -8.4779   -0.8811 H         1 <0>         0.1608
     49 H18         6.4990   -7.9110   -5.3038 H         1 <0>         0.4332
     50 H19         5.1175  -11.0851   -6.0482 H         1 <0>         0.1425
     51 H20         5.5005  -12.3449   -8.1272 H         1 <0>         0.1316
     52 H21         6.6803  -11.2908  -10.0108 H         1 <0>         0.1322
     53 H22         7.4832   -8.9719   -9.8250 H         1 <0>         0.1373
     54 H23         8.7432   -7.4772   -9.0863 H         1 <0>         0.0607
     55 H24         7.1872   -6.8960   -9.7261 H         1 <0>         0.0595
     56 H25         8.1528   -5.8549   -8.6528 H         1 <0>         0.1044
     57 H26         1.0117  -11.0152   -4.3955 H         1 <0>         0.4246
     58 H27         1.8969  -11.2722   -5.8003 H         1 <0>         0.4263
     59 H28         1.7674   -6.7491   -2.1992 H         1 <0>         0.4254
@<TRIPOS>BOND
     1    1    2 1
     2    1   32 1
     3    1   33 1
     4    1   34 1
     5    2    3 1
     6    3    8 ar
     7    3    4 ar
     8    4    5 ar
     9    4   35 1
    10    5    6 ar
    11    5   36 1
    12    6    7 ar
    13    6   37 1
    14    7    8 ar
    15    7    9 1
    16    8   38 1
    17    9   14 1
    18    9   10 1
    19   10   11 1
    20   10   39 1
    21   10   40 1
    22   11   12 1
    23   11   41 1
    24   11   42 1
    25   12   13 1
    26   12   15 1
    27   12   59 1
    28   13   14 1
    29   13   43 1
    30   13   44 1
    31   14   45 1
    32   14   46 1
    33   15   16 1
    34   15   47 1
    35   15   48 1
    36   16   21 ar
    37   16   17 ar
    38   17   18 ar
    39   18   19 ar
    40   18   31 1
    41   19   20 ar
    42   20   21 ar
    43   20   22 1
    44   22   23 1
    45   22   49 1
    46   23   28 ar
    47   23   24 ar
    48   24   25 ar
    49   24   50 1
    50   25   26 ar
    51   25   51 1
    52   26   27 ar
    53   26   52 1
    54   27   28 ar
    55   27   53 1
    56   28   29 1
    57   29   30 1
    58   30   54 1
    59   30   55 1
    60   30   56 1
    61   31   57 1
    62   31   58 1
@<TRIPOS>MOLECULE
ZINC59447164
   53    54     0     0     0
SMALL
USER_CHARGES

@<TRIPOS>ATOM
      1 C1          1.1198   -0.4754   -0.1560 C.3       1 <0>        -0.2030
      2 C2         -0.0619   -0.0196    0.6606 C.2       1 <0>         0.3899
      3 O1          0.0272    0.9701    1.3562 O.2       1 <0>        -0.4464
      4 C3         -1.3211   -0.7736    0.6142 C.ar      1 <0>        -0.1670
      5 C4         -1.4244   -1.9199   -0.1837 C.ar      1 <0>        -0.0519
      6 C5         -2.6018   -2.6209   -0.2236 C.ar      1 <0>        -0.1282
      7 C6         -3.6938   -2.1949    0.5275 C.ar      1 <0>         0.1488
      8 C7         -3.5959   -1.0558    1.3218 C.ar      1 <0>        -0.1420
      9 C8         -2.4207   -0.3518    1.3723 C.ar      1 <0>        -0.0401
     10 N1         -4.8883   -2.9105    0.4839 N.am      1 <0>        -0.6445
     11 C9         -4.8665   -4.2500    0.3367 C.2       1 <0>         0.4972
     12 O2         -3.8085   -4.8429    0.3368 O.2       1 <0>        -0.5055
     13 C10        -6.1567   -5.0112    0.1720 C.3       1 <0>        -0.0265
     14 N2         -5.8653   -6.4441    0.0313 N.4       1 <0>        -0.4964
     15 C11        -7.1230   -7.1860   -0.1293 C.3       1 <0>        -0.0024
     16 C12        -6.8196   -8.6784   -0.2759 C.3       1 <0>        -0.1680
     17 C13        -8.1295   -9.4512   -0.4431 C.3       1 <0>         0.1205
     18 N3         -7.8389  -10.8802   -0.5835 N.pl3     1 <0>        -0.7307
     19 C14        -8.8836  -11.7922   -0.7496 C.ar      1 <0>         0.2978
     20 C15       -10.1910  -11.3385   -0.8725 C.ar      1 <0>        -0.1943
     21 C16       -11.2214  -12.2428   -1.0371 C.ar      1 <0>         0.0218
     22 C17       -10.9532  -13.5990   -1.0797 C.ar      1 <0>        -0.2283
     23 C18        -9.6533  -14.0540   -0.9573 C.ar      1 <0>         0.0404
     24 C19        -8.6172  -13.1545   -0.7981 C.ar      1 <0>        -0.1184
     25 N4         -7.2254  -13.6421   -0.6733 N.pl3     1 <0>         0.0399
     26 O3         -6.3210  -13.0272   -1.1886 O.2       1 <0>        -0.1776
     27 O4         -6.9929  -14.6553   -0.0561 O.3       1 <0>        -0.1246
     28 C20       -12.0804  -14.5830   -1.2595 C.3       1 <0>         0.5171
     29 F1        -13.2922  -13.8909   -1.3588 F         1 <0>        -0.1712
     30 F2        -11.8700  -15.3249   -2.4267 F         1 <0>        -0.1707
     31 F3        -12.1253  -15.4466   -0.1598 F         1 <0>        -0.1694
     32 H1          1.9571    0.2034    0.0061 H         1 <0>         0.0906
     33 H2          1.4047   -1.4827    0.1479 H         1 <0>         0.0954
     34 H3          0.8525   -0.4767   -1.2127 H         1 <0>         0.0957
     35 H4         -0.5779   -2.2509   -0.7671 H         1 <0>         0.1430
     36 H5         -2.6825   -3.5048   -0.8389 H         1 <0>         0.1388
     37 H6         -4.4458   -0.7286    1.9023 H         1 <0>         0.1378
     38 H7         -2.3441    0.5290    1.9925 H         1 <0>         0.1455
     39 H8         -5.7358   -2.4447    0.5594 H         1 <0>         0.4231
     40 H9         -6.7863   -4.8527    1.0476 H         1 <0>         0.1674
     41 H10        -6.6764   -4.6569   -0.7182 H         1 <0>         0.1687
     42 H11        -5.2825   -6.5908   -0.7792 H         1 <0>         0.4382
     43 H12        -7.7526   -7.0276    0.7463 H         1 <0>         0.1411
     44 H13        -7.6428   -6.8318   -1.0195 H         1 <0>         0.1420
     45 H14        -6.1900   -8.8369   -1.1514 H         1 <0>         0.1039
     46 H15        -6.2998   -9.0327    0.6143 H         1 <0>         0.1006
     47 H16        -8.7591   -9.2927    0.4325 H         1 <0>         0.0825
     48 H17        -8.6492   -9.0969   -1.3333 H         1 <0>         0.0845
     49 H18        -6.9210  -11.1930   -0.5611 H         1 <0>         0.4181
     50 H19       -10.4012  -10.2797   -0.8389 H         1 <0>         0.1554
     51 H20       -12.2380  -11.8908   -1.1323 H         1 <0>         0.1611
     52 H21        -9.4474  -15.1136   -0.9903 H         1 <0>         0.1623
     53 H22        -5.3842   -6.7720    0.8553 H         1 <0>         0.4383
@<TRIPOS>BOND
     1    1    2 1
     2    1   32 1
     3    1   33 1
     4    1   34 1
     5    2    3 2
     6    2    4 1
     7    4    9 ar
     8    4    5 ar
     9    5    6 ar
    10    5   35 1
    11    6    7 ar
    12    6   36 1
    13    7    8 ar
    14    7   10 1
    15    8    9 ar
    16    8   37 1
    17    9   38 1
    18   10   11 am
    19   10   39 1
    20   11   12 2
    21   11   13 1
    22   13   14 1
    23   13   40 1
    24   13   41 1
    25   14   15 1
    26   14   42 1
    27   14   53 1
    28   15   16 1
    29   15   43 1
    30   15   44 1
    31   16   17 1
    32   16   45 1
    33   16   46 1
    34   17   18 1
    35   17   47 1
    36   17   48 1
    37   18   19 1
    38   18   49 1
    39   19   24 ar
    40   19   20 ar
    41   20   21 ar
    42   20   50 1
    43   21   22 ar
    44   21   51 1
    45   22   23 ar
    46   22   28 1
    47   23   24 ar
    48   23   52 1
    49   24   25 1
    50   25   26 2
    51   25   27 1
    52   28   29 1
    53   28   30 1
    54   28   31 1
@<TRIPOS>MOLECULE
ZINC20573708
   63    66     0     0     0
SMALL
USER_CHARGES

@<TRIPOS>ATOM
      1 C1         -0.0173    1.4248    0.0099 C.3       1 <0>         0.0264
      2 O1          0.0021   -0.0041    0.0020 O.3       1 <0>        -0.3178
      3 C2          0.6058   -0.6071   -1.0557 C.ar      1 <0>         0.1260
      4 C3          1.1730    0.1607   -2.0624 C.ar      1 <0>        -0.2060
      5 C4          1.7865   -0.4547   -3.1363 C.ar      1 <0>        -0.0746
      6 C5          1.8352   -1.8346   -3.2086 C.ar      1 <0>        -0.1249
      7 C6          1.2702   -2.6021   -2.2068 C.ar      1 <0>        -0.0756
      8 C7          0.6609   -1.9915   -1.1277 C.ar      1 <0>        -0.1500
      9 C8          2.5046   -2.5033   -4.3815 C.3       1 <0>        -0.0604
     10 C9          3.9857   -2.7227   -4.0663 C.3       1 <0>        -0.1338
     11 C10         4.6551   -3.3914   -5.2392 C.2       1 <0>         0.5125
     12 O2          4.0111   -3.6655   -6.2297 O.2       1 <0>        -0.5292
     13 N1          5.9696   -3.6849   -5.1875 N.am      1 <0>        -0.7389
     14 C11         6.6204   -4.3349   -6.3277 C.3       1 <0>         0.1322
     15 C12         8.1014   -4.5543   -6.0126 C.3       1 <0>        -0.1529
     16 C13         8.7709   -5.2230   -7.1855 C.2       1 <0>         0.5229
     17 O3          8.1269   -5.4971   -8.1759 O.2       1 <0>        -0.5178
     18 N2         10.0853   -5.5164   -7.1337 N.am      1 <0>        -0.6218
     19 C14        10.8777   -5.1961   -5.9385 C.3       1 <0>         0.1044
     20 C15        11.5895   -6.4670   -5.4641 C.3       1 <0>        -0.1271
     21 C16        12.4003   -7.0556   -6.6191 C.3       1 <0>         0.1881
     22 C17        11.4669   -7.4236   -7.7727 C.3       1 <0>        -0.1646
     23 C18        10.7523   -6.1683   -8.2691 C.3       1 <0>         0.1100
     24 C19        13.1336   -8.2855   -6.1483 C.2       1 <0>         0.0298
     25 C20        14.4263   -8.5406   -6.4552 C.2       1 <0>         0.0763
     26 N3         14.7530   -9.7202   -5.8664 N.pl3     1 <0>        -0.4998
     27 H1         15.6140  -10.1653   -5.9046 H         1 <0>         0.4666
     28 C21        13.6487  -10.1563   -5.2157 C.cat     1 <0>         0.2966
     29 N4         12.6855   -9.2887   -5.3922 N.pl3     1 <0>        -0.4604
     30 C22        15.2737   -7.6292   -7.3050 C.3       1 <0>        -0.0562
     31 C23        14.3347   -6.6608   -8.0386 C.3       1 <0>         0.0481
     32 N5         13.3898   -6.0693   -7.0802 N.3       1 <0>        -0.6740
     33 H2          1.0053    1.8021    0.0021 H         1 <0>         0.0558
     34 H3         -0.5445    1.7859   -0.8732 H         1 <0>         0.0567
     35 H4         -0.5275    1.7763    0.9067 H         1 <0>         0.1022
     36 H5          1.1347    1.2385   -2.0068 H         1 <0>         0.1287
     37 H6          2.2283    0.1425   -3.9203 H         1 <0>         0.1248
     38 H7          1.3092   -3.6798   -2.2657 H         1 <0>         0.1289
     39 H8          0.2237   -2.5913   -0.3432 H         1 <0>         0.1313
     40 H9          2.0276   -3.4646   -4.5726 H         1 <0>         0.0801
     41 H10         2.4108   -1.8695   -5.2632 H         1 <0>         0.0798
     42 H11         4.4627   -1.7615   -3.8752 H         1 <0>         0.0959
     43 H12         4.0795   -3.3566   -3.1846 H         1 <0>         0.0958
     44 H13         6.4846   -3.4656   -4.3953 H         1 <0>         0.4000
     45 H14         6.1433   -5.2962   -6.5188 H         1 <0>         0.0765
     46 H15         6.5266   -3.7011   -7.2095 H         1 <0>         0.0781
     47 H16         8.5785   -3.5931   -5.8214 H         1 <0>         0.1052
     48 H17         8.1952   -5.1882   -5.1308 H         1 <0>         0.1015
     49 H18        11.6166   -4.4332   -6.1836 H         1 <0>         0.0860
     50 H19        10.2191   -4.8304   -5.1507 H         1 <0>         0.1009
     51 H20        12.2576   -6.2228   -4.6382 H         1 <0>         0.0983
     52 H21        10.8500   -7.1952   -5.1308 H         1 <0>         0.0750
     53 H22        12.0479   -7.8585   -8.5860 H         1 <0>         0.0894
     54 H23        10.7281   -8.1463   -7.4263 H         1 <0>         0.0804
     55 H24        10.0111   -6.4441   -9.0192 H         1 <0>         0.1089
     56 H25        11.4809   -5.4854   -8.7061 H         1 <0>         0.0721
     57 H26        13.5748  -11.0705   -4.6455 H         1 <0>         0.2692
     58 H27        15.9610   -7.0681   -6.6718 H         1 <0>         0.1166
     59 H28        15.8360   -8.2179   -8.0297 H         1 <0>         0.1081
     60 H29        14.9217   -5.8695   -8.5048 H         1 <0>         0.1101
     61 H30        13.7823   -7.2026   -8.8063 H         1 <0>         0.0560
     62 H31        12.9360   -5.2585   -7.4735 H         1 <0>         0.3706
     63 H32        11.7884   -9.3632   -5.0309 H         1 <0>         0.4632
@<TRIPOS>BOND
     1    1    2 1
     2    1   33 1
     3    1   34 1
     4    1   35 1
     5    2    3 1
     6    3    8 ar
     7    3    4 ar
     8    4    5 ar
     9    4   36 1
    10    5    6 ar
    11    5   37 1
    12    6    7 ar
    13    6    9 1
    14    7    8 ar
    15    7   38 1
    16    8   39 1
    17    9   10 1
    18    9   40 1
    19    9   41 1
    20   10   11 1
    21   10   42 1
    22   10   43 1
    23   11   12 2
    24   11   13 am
    25   13   14 1
    26   13   44 1
    27   14   15 1
    28   14   45 1
    29   14   46 1
    30   15   16 1
    31   15   47 1
    32   15   48 1
    33   16   17 2
    34   16   18 am
    35   18   23 1
    36   18   19 1
    37   19   20 1
    38   19   49 1
    39   19   50 1
    40   20   21 1
    41   20   51 1
    42   20   52 1
    43   21   32 1
    44   21   22 1
    45   21   24 1
    46   22   23 1
    47   22   53 1
    48   22   54 1
    49   23   55 1
    50   23   56 1
    51   24   29 1
    52   24   25 2
    53   25   26 1
    54   25   30 1
    55   26   27 1
    56   26   28 1
    57   28   29 2
    58   28   57 1
    59   29   63 1
    60   30   31 1
    61   30   58 1
    62   30   59 1
    63   31   32 1
    64   31   60 1
    65   31   61 1
    66   32   62 1
@<TRIPOS>MOLECULE
ZINC39601533
   59    60     0     0     0
SMALL
USER_CHARGES

@<TRIPOS>ATOM
      1 C1         -0.2989    1.5762   -0.2775 C.3       1 <0>        -0.1552
      2 C2         -0.2371    0.0475   -0.2660 C.3       1 <0>        -0.1253
      3 C3         -1.6532   -0.5193   -0.1469 C.3       1 <0>        -0.1064
      4 C4         -1.5914   -2.0481   -0.1354 C.3       1 <0>        -0.1381
      5 C5         -2.9862   -2.6064   -0.0182 C.2       1 <0>         0.5394
      6 O1         -3.9362   -1.8555    0.0495 O.2       1 <0>        -0.5290
      7 N1         -3.1779   -3.9401    0.0114 N.am      1 <0>        -0.6265
      8 C6         -2.1514   -5.0069   -0.0524 C.3       1 <0>         0.1103
      9 C7         -2.6407   -6.0798    0.9461 C.3       1 <0>        -0.1134
     10 H1         -2.1683   -5.9374    1.9180 H         1 <0>         0.1106
     11 C8         -4.1586   -5.8555    1.0505 C.3       1 <0>        -0.0708
     12 C9         -4.4630   -4.6712    0.1218 C.3       1 <0>         0.1065
     13 C10        -4.5437   -5.5059    2.4847 C.3       1 <0>        -0.1335
     14 C11        -6.0637   -5.3437    2.5749 C.3       1 <0>        -0.0109
     15 N2         -6.7161   -6.5922    2.1622 N.4       1 <0>        -0.5043
     16 C12        -6.4153   -6.8726    0.7532 C.3       1 <0>        -0.0071
     17 C13        -4.9101   -7.0992    0.5858 C.3       1 <0>        -0.1473
     18 C14        -2.3471   -7.4605    0.4184 C.2       1 <0>         0.5188
     19 O2         -2.3347   -7.6628   -0.7774 O.2       1 <0>        -0.5225
     20 N3         -2.0982   -8.4706    1.2753 N.am      1 <0>        -0.7210
     21 C15        -1.8127   -9.8128    0.7623 C.3       1 <0>         0.1212
     22 C16        -1.5681  -10.7654    1.9344 C.3       1 <0>         0.0451
     23 O3         -2.7688  -10.8998    2.6975 O.3       1 <0>        -0.3851
     24 C17        -2.6479  -11.7731    3.8222 C.3       1 <0>         0.0591
     25 C18        -3.9858  -11.8408    4.5614 C.3       1 <0>         0.0792
     26 O4         -4.9667  -12.4459    3.7165 O.3       1 <0>        -0.5673
     27 H2          0.7100    1.9800   -0.3623 H         1 <0>         0.0575
     28 H3         -0.8961    1.9093   -1.1263 H         1 <0>         0.0560
     29 H4         -0.7546    1.9284    0.6479 H         1 <0>         0.0550
     30 H5          0.2186   -0.3047   -1.1914 H         1 <0>         0.0635
     31 H6          0.3601   -0.2856    0.5828 H         1 <0>         0.0622
     32 H7         -2.1089   -0.1672    0.7785 H         1 <0>         0.0699
     33 H8         -2.2504   -0.1863   -0.9957 H         1 <0>         0.0714
     34 H9         -1.1356   -2.4002   -1.0608 H         1 <0>         0.0977
     35 H10        -0.9941   -2.3811    0.7134 H         1 <0>         0.0951
     36 H11        -2.0962   -5.4215   -1.0590 H         1 <0>         0.1003
     37 H12        -1.1799   -4.6183    0.2532 H         1 <0>         0.0941
     38 H13        -5.2282   -4.0312    0.5611 H         1 <0>         0.0881
     39 H14        -4.7817   -5.0301   -0.8568 H         1 <0>         0.0833
     40 H15        -4.2228   -6.3051    3.1528 H         1 <0>         0.0959
     41 H16        -4.0603   -4.5728    2.7741 H         1 <0>         0.1169
     42 H17        -6.3436   -5.1100    3.6022 H         1 <0>         0.1391
     43 H18        -6.3820   -4.5335    1.9188 H         1 <0>         0.1339
     44 H19        -6.3785   -7.3516    2.7344 H         1 <0>         0.4279
     45 H20        -6.9543   -7.7659    0.4376 H         1 <0>         0.1394
     46 H21        -6.7254   -6.0263    0.1403 H         1 <0>         0.1326
     47 H22        -4.6852   -7.2893   -0.4637 H         1 <0>         0.1260
     48 H23        -4.6022   -7.9557    1.1855 H         1 <0>         0.0996
     49 H24        -2.1081   -8.3089    2.2317 H         1 <0>         0.4031
     50 H25        -2.6620  -10.1666    0.1778 H         1 <0>         0.0814
     51 H26        -0.9254   -9.7791    0.1302 H         1 <0>         0.0899
     52 H27        -1.2689  -11.7416    1.5528 H         1 <0>         0.0735
     53 H28        -0.7772  -10.3653    2.5688 H         1 <0>         0.0597
     54 H29        -2.3711  -12.7702    3.4798 H         1 <0>         0.0628
     55 H30        -1.8794  -11.3939    4.4957 H         1 <0>         0.0674
     56 H31        -3.8704  -12.4352    5.4677 H         1 <0>         0.0657
     57 H32        -4.3061  -10.8331    4.8261 H         1 <0>         0.0490
     58 H33        -5.8416  -12.5217    4.1213 H         1 <0>         0.3814
     59 H34        -7.7143   -6.5036    2.2804 H         1 <0>         0.4337
@<TRIPOS>BOND
     1    1    2 1
     2    1   27 1
     3    1   28 1
     4    1   29 1
     5    2    3 1
     6    2   30 1
     7    2   31 1
     8    3    4 1
     9    3   32 1
    10    3   33 1
    11    4    5 1
    12    4   34 1
    13    4   35 1
    14    5    6 2
    15    5    7 am
    16    7   12 1
    17    7    8 1
    18    8    9 1
    19    8   36 1
    20    8   37 1
    21    9   10 1
    22    9   11 1
    23    9   18 1
    24   11   17 1
    25   11   12 1
    26   11   13 1
    27   12   38 1
    28   12   39 1
    29   13   14 1
    30   13   40 1
    31   13   41 1
    32   14   15 1
    33   14   42 1
    34   14   43 1
    35   15   16 1
    36   15   44 1
    37   15   59 1
    38   16   17 1
    39   16   45 1
    40   16   46 1
    41   17   47 1
    42   17   48 1
    43   18   19 2
    44   18   20 am
    45   20   21 1
    46   20   49 1
    47   21   22 1
    48   21   50 1
    49   21   51 1
    50   22   23 1
    51   22   52 1
    52   22   53 1
    53   23   24 1
    54   24   25 1
    55   24   54 1
    56   24   55 1
    57   25   26 1
    58   25   56 1
    59   25   57 1
    60   26   58 1
@<TRIPOS>MOLECULE
ZINC41786582
   58    59     0     0     0
SMALL
USER_CHARGES

@<TRIPOS>ATOM
      1 C1         -0.1402    1.6900    0.2822 C.3       1 <0>        -0.1855
      2 C2         -0.1333    0.1603    0.2495 C.3       1 <0>         0.0272
      3 H1          0.3512   -0.1809   -0.6654 H         1 <0>         0.1351
      4 C3         -1.5730   -0.3566    0.2868 C.3       1 <0>        -0.1411
      5 C4         -1.5609   -1.8876    0.2536 C.3       1 <0>        -0.1393
      6 C5         -0.7271   -2.4073    1.4283 C.3       1 <0>        -0.1462
      7 C6          0.6813   -1.8144    1.3487 C.3       1 <0>        -0.0115
      8 N1          0.6033   -0.3500    1.4121 N.4       1 <0>        -0.3806
      9 C7          1.9609    0.2110    1.4146 C.3       1 <0>        -0.0165
     10 C8          2.6884   -0.2198    2.6897 C.3       1 <0>        -0.1453
     11 C9          4.1025    0.3645    2.6923 C.3       1 <0>        -0.1314
     12 C10         4.8300   -0.0663    3.9675 C.3       1 <0>         0.1167
     13 N2          6.1840    0.4932    3.9699 N.am      1 <0>        -0.7037
     14 C11         7.0140    0.2443    5.0022 C.2       1 <0>         0.5147
     15 O1          6.6399   -0.4432    5.9296 O.2       1 <0>        -0.5045
     16 C12         8.3943    0.8147    5.0047 C.2       1 <0>         0.5111
     17 O2          8.7685    1.5023    4.0771 O.2       1 <0>        -0.4990
     18 N3          9.2244    0.5658    6.0369 N.am      1 <0>        -0.6350
     19 C13        10.5469    1.0176    5.9951 C.ar      1 <0>         0.1226
     20 C14        10.8499    2.2244    5.3804 C.ar      1 <0>        -0.1252
     21 C15        12.1633    2.6693    5.3408 C.ar      1 <0>         0.1592
     22 C16        13.1720    1.9069    5.9160 C.ar      1 <0>        -0.1075
     23 C17        12.8693    0.7052    6.5275 C.ar      1 <0>        -0.1089
     24 C18        11.5604    0.2607    6.5747 C.ar      1 <0>         0.0646
     25 F1         11.2666   -0.9114    7.1788 F         1 <0>        -0.1330
     26 N4         12.4722    3.8862    4.7209 N.am      1 <0>        -0.6714
     27 C19        13.5647    4.5779    5.1009 C.2       1 <0>         0.5119
     28 O3         14.2210    4.2020    6.0491 O.2       1 <0>        -0.5185
     29 C20        13.9710    5.8182    4.3476 C.3       1 <0>        -0.1730
     30 H2          0.8851    2.0586    0.2546 H         1 <0>         0.0826
     31 H3         -0.6862    2.0694   -0.5816 H         1 <0>         0.1060
     32 H4         -0.6246    2.0316    1.1969 H         1 <0>         0.0812
     33 H5         -2.0584   -0.0162    1.2015 H         1 <0>         0.0879
     34 H6         -2.1182    0.0219   -0.5779 H         1 <0>         0.1116
     35 H7         -2.5812   -2.2620    0.3370 H         1 <0>         0.0950
     36 H8         -1.1219   -2.2284   -0.6840 H         1 <0>         0.0816
     37 H9         -1.1949   -2.1094    2.3666 H         1 <0>         0.0876
     38 H10        -0.6676   -3.4946    1.3795 H         1 <0>         0.1124
     39 H11         1.2777   -2.1825    2.1835 H         1 <0>         0.1320
     40 H12         1.1483   -2.1130    0.4101 H         1 <0>         0.1283
     41 H13         2.5064   -0.1537    0.5442 H         1 <0>         0.1308
     42 H14         1.9046    1.2990    1.3783 H         1 <0>         0.1360
     43 H15         2.1430    0.1450    3.5601 H         1 <0>         0.0923
     44 H16         2.7448   -1.3077    2.7259 H         1 <0>         0.0921
     45 H17         4.6479   -0.0002    1.8219 H         1 <0>         0.0852
     46 H18         4.0461    1.4525    2.6561 H         1 <0>         0.0853
     47 H19         4.2846    0.2984    4.8378 H         1 <0>         0.0792
     48 H20         4.8863   -1.1542    4.0037 H         1 <0>         0.0788
     49 H21         6.4830    1.0427    3.2287 H         1 <0>         0.4160
     50 H22         8.9043    0.0733    6.8088 H         1 <0>         0.4284
     51 H23        10.0647    2.8159    4.9332 H         1 <0>         0.1526
     52 H24        14.1943    2.2536    5.8850 H         1 <0>         0.1580
     53 H25        13.6556    0.1143    6.9736 H         1 <0>         0.1496
     54 H26        11.8998    4.2315    4.0180 H         1 <0>         0.4155
     55 H27        13.4892    6.6883    4.7936 H         1 <0>         0.1002
     56 H28        15.0534    5.9362    4.3987 H         1 <0>         0.1019
     57 H29        13.6643    5.7273    3.3056 H         1 <0>         0.0853
     58 H30         0.1266   -0.0754    2.2579 H         1 <0>         0.4205
@<TRIPOS>BOND
     1    1    2 1
     2    1   30 1
     3    1   31 1
     4    1   32 1
     5    2    3 1
     6    2    8 1
     7    2    4 1
     8    4    5 1
     9    4   33 1
    10    4   34 1
    11    5    6 1
    12    5   35 1
    13    5   36 1
    14    6    7 1
    15    6   37 1
    16    6   38 1
    17    7    8 1
    18    7   39 1
    19    7   40 1
    20    8    9 1
    21    8   58 1
    22    9   10 1
    23    9   41 1
    24    9   42 1
    25   10   11 1
    26   10   43 1
    27   10   44 1
    28   11   12 1
    29   11   45 1
    30   11   46 1
    31   12   13 1
    32   12   47 1
    33   12   48 1
    34   13   14 am
    35   13   49 1
    36   14   15 2
    37   14   16 1
    38   16   17 2
    39   16   18 am
    40   18   19 1
    41   18   50 1
    42   19   24 ar
    43   19   20 ar
    44   20   21 ar
    45   20   51 1
    46   21   22 ar
    47   21   26 1
    48   22   23 ar
    49   22   52 1
    50   23   24 ar
    51   23   53 1
    52   24   25 1
    53   26   27 am
    54   26   54 1
    55   27   28 2
    56   27   29 1
    57   29   55 1
    58   29   56 1
    59   29   57 1
@<TRIPOS>MOLECULE
ZINC54045071
   45    47     0     0     0
SMALL
USER_CHARGES

@<TRIPOS>ATOM
      1 C1         -0.0178    1.4608    0.0101 C.3       1 <0>         0.0495
      2 N1          0.0021   -0.0041    0.0020 N.pl3     1 <0>        -0.3919
      3 C2          0.0086   -0.8102   -1.1042 C.2       1 <0>         0.0282
      4 C3          0.0285   -2.0813   -0.6599 C.2       1 <0>         0.0056
      5 N2          0.0339   -2.0521    0.6810 N.pl3     1 <0>        -0.4695
      6 C4          0.0233   -0.8111    1.0845 C.cat     1 <0>         0.2994
      7 C5          0.0299   -0.3544    2.5206 C.3       1 <0>         0.2670
      8 H1         -0.4178    0.6371    2.5886 H         1 <0>         0.1500
      9 C6          1.4493   -0.3001    3.0240 C.ar      1 <0>        -0.0892
     10 C7          2.0865   -1.4616    3.4207 C.ar      1 <0>        -0.1515
     11 C8          3.3886   -1.4152    3.8830 C.ar      1 <0>        -0.0614
     12 C9          4.0564   -0.2075    3.9500 C.ar      1 <0>        -0.1850
     13 C10         3.4195    0.9589    3.5527 C.ar      1 <0>         0.1456
     14 C11         2.1147    0.9088    3.0834 C.ar      1 <0>        -0.1291
     15 O1          4.0743    2.1480    3.6176 O.3       1 <0>        -0.3105
     16 C12         5.4173    2.1233    4.1053 C.3       1 <0>         0.0220
     17 N3         -0.7417   -1.2957    3.3360 N.pl3     1 <0>        -0.7123
     18 C13        -2.1163   -1.1587    3.4376 C.ar      1 <0>         0.4181
     19 C14        -2.8410   -2.0569    4.2212 C.ar      1 <0>        -0.1454
     20 C15        -4.1997   -1.9177    4.3193 C.ar      1 <0>         0.0374
     21 C16        -4.8171   -0.8677    3.6218 C.ar      1 <0>        -0.2143
     22 C17        -4.0293   -0.0067    2.8568 C.ar      1 <0>         0.1888
     23 N4         -2.7244   -0.1726    2.7931 N.ar      1 <0>        -0.5306
     24 C18        -6.2783   -0.6773    3.6961 C.2       1 <0>         0.5697
     25 O2         -6.9566   -1.4329    4.3650 O.2       1 <0>        -0.5257
     26 N5         -6.8612    0.3341    3.0225 N.am      1 <0>        -0.8468
     27 Cl1        -2.0283   -3.3391    5.0634 Cl        1 <0>        -0.0347
     28 H2          1.0048    1.8381    0.0023 H         1 <0>         0.1134
     29 H3         -0.5450    1.8219   -0.8730 H         1 <0>         0.1230
     30 H4         -0.5280    1.8123    0.9069 H         1 <0>         0.1149
     31 H5         -0.0008   -0.4887   -2.1352 H         1 <0>         0.2271
     32 H6          0.0383   -2.9687   -1.2754 H         1 <0>         0.2258
     33 H7          1.5659   -2.4065    3.3697 H         1 <0>         0.1202
     34 H8          3.8840   -2.3236    4.1922 H         1 <0>         0.1392
     35 H9          5.0734   -0.1716    4.3119 H         1 <0>         0.1412
     36 H10         1.6182    1.8149    2.7689 H         1 <0>         0.1397
     37 H11         5.4279    1.7273    5.1207 H         1 <0>         0.0627
     38 H12         6.0260    1.4885    3.4613 H         1 <0>         0.0613
     39 H13         5.8223    3.1352    4.1057 H         1 <0>         0.1106
     40 H14        -0.2900   -2.0148    3.8047 H         1 <0>         0.4244
     41 H15        -4.7830   -2.6005    4.9193 H         1 <0>         0.1669
     42 H16        -4.4931    0.8048    2.3157 H         1 <0>         0.1744
     43 H17        -6.3201    0.9368    2.4888 H         1 <0>         0.3993
     44 H18        -7.8219    0.4592    3.0713 H         1 <0>         0.4140
     45 H19         0.0475   -2.8306    1.2596 H         1 <0>         0.4580
@<TRIPOS>BOND
     1    1    2 1
     2    1   28 1
     3    1   29 1
     4    1   30 1
     5    2    6 1
     6    2    3 1
     7    3    4 2
     8    3   31 1
     9    4    5 1
    10    4   32 1
    11    5    6 2
    12    5   45 1
    13    6    7 1
    14    7    8 1
    15    7    9 1
    16    7   17 1
    17    9   14 ar
    18    9   10 ar
    19   10   11 ar
    20   10   33 1
    21   11   12 ar
    22   11   34 1
    23   12   13 ar
    24   12   35 1
    25   13   14 ar
    26   13   15 1
    27   14   36 1
    28   15   16 1
    29   16   37 1
    30   16   38 1
    31   16   39 1
    32   17   18 1
    33   17   40 1
    34   18   23 ar
    35   18   19 ar
    36   19   20 ar
    37   19   27 1
    38   20   21 ar
    39   20   41 1
    40   21   22 ar
    41   21   24 1
    42   22   23 ar
    43   22   42 1
    44   24   25 2
    45   24   26 am
    46   26   43 1
    47   26   44 1
@<TRIPOS>MOLECULE
ZINC65469308
   53    53     0     0     0
SMALL
USER_CHARGES

@<TRIPOS>ATOM
      1 C1          2.4477    2.3625   -1.2190 C.3       1 <0>        -0.1501
      2 C2          2.1192    0.8699   -1.1458 C.3       1 <0>        -0.6286
      3 S1          2.6719    0.2066    0.4495 S.o2      1 <0>         2.6121
      4 O1          4.0911    0.2188    0.5194 O.2       1 <0>        -0.9514
      5 O2          1.8900    0.7516    1.5035 O.2       1 <0>        -0.9474
      6 N1          2.2647   -1.3980    0.4074 N.pl3     1 <0>        -1.1189
      7 C3          2.9054   -2.2911   -0.5611 C.3       1 <0>         0.1029
      8 C4          2.6504   -3.7454   -0.1601 C.3       1 <0>         0.1298
      9 N2          3.2912   -4.6386   -1.1286 N.am      1 <0>        -0.7376
     10 C5          3.1991   -5.9746   -0.9768 C.2       1 <0>         0.7122
     11 O3          2.5843   -6.4386   -0.0361 O.2       1 <0>        -0.5761
     12 N3          3.7886   -6.7962   -1.8678 N.am      1 <0>        -0.7416
     13 C6          3.6886   -8.2485   -1.7028 C.3       1 <0>         0.1259
     14 C7          4.3275   -8.9437   -2.9067 C.3       1 <0>         0.0671
     15 C8          3.5321   -8.6311   -4.1479 C.ar      1 <0>        -0.1499
     16 C9          2.3613   -9.3178   -4.4097 C.ar      1 <0>        -0.1135
     17 C10         1.6316   -9.0310   -5.5482 C.ar      1 <0>        -0.1049
     18 C11         2.0726   -8.0572   -6.4247 C.ar      1 <0>        -0.0492
     19 C12         3.2429   -7.3699   -6.1624 C.ar      1 <0>        -0.1070
     20 C13         3.9703   -7.6537   -5.0217 C.ar      1 <0>        -0.0861
     21 C14         1.2777   -7.7452   -7.6664 C.3       1 <0>        -0.1312
     22 N4          4.3381  -10.3958   -2.6847 N.4       1 <0>        -0.3809
     23 C15         4.9056  -11.0670   -3.8618 C.3       1 <0>        -0.0487
     24 C16         5.1551  -10.7047   -1.5036 C.3       1 <0>        -0.0552
     25 H1          3.5241    2.5028   -1.1204 H         1 <0>         0.0742
     26 H2          2.1156    2.7610   -2.1776 H         1 <0>         0.0846
     27 H3          1.9374    2.8868   -0.4110 H         1 <0>         0.0754
     28 H4          1.0427    0.7296   -1.2444 H         1 <0>         0.1339
     29 H5          2.6294    0.3456   -1.9538 H         1 <0>         0.1286
     30 H6          1.6019   -1.7465    1.0239 H         1 <0>         0.4227
     31 H7          2.4906   -2.1095   -1.5526 H         1 <0>         0.0724
     32 H8          3.9786   -2.1011   -0.5759 H         1 <0>         0.0898
     33 H9          3.0653   -3.9270    0.8314 H         1 <0>         0.0829
     34 H10         1.5772   -3.9354   -0.1453 H         1 <0>         0.0804
     35 H11         3.7817   -4.2684   -1.8791 H         1 <0>         0.4011
     36 H12         4.2791   -6.4260   -2.6183 H         1 <0>         0.4014
     37 H13         4.2083   -8.5474   -0.7926 H         1 <0>         0.0908
     38 H14         2.6392   -8.5347   -1.6327 H         1 <0>         0.0923
     39 H15         5.3502   -8.5878   -3.0312 H         1 <0>         0.1488
     40 H16         2.0168  -10.0786   -3.7249 H         1 <0>         0.1200
     41 H17         0.7173   -9.5680   -5.7532 H         1 <0>         0.1360
     42 H18         3.5876   -6.6093   -6.8474 H         1 <0>         0.1371
     43 H19         4.8827   -7.1141   -4.8149 H         1 <0>         0.1320
     44 H20         0.5530   -6.9613   -7.4465 H         1 <0>         0.0829
     45 H21         1.9514   -7.4068   -8.4537 H         1 <0>         0.0765
     46 H22         0.7537   -8.6420   -7.9972 H         1 <0>         0.0758
     47 H23         5.9251  -10.7167   -4.0234 H         1 <0>         0.1243
     48 H24         4.9135  -12.1444   -3.6971 H         1 <0>         0.1287
     49 H25         4.2994  -10.8378   -4.7382 H         1 <0>         0.1254
     50 H26         4.6695  -10.3080   -0.6120 H         1 <0>         0.1280
     51 H27         5.2625  -11.7852   -1.4085 H         1 <0>         0.1312
     52 H28         6.1396  -10.2501   -1.6138 H         1 <0>         0.1260
     53 H29         3.3944  -10.7201   -2.5351 H         1 <0>         0.4255
@<TRIPOS>BOND
     1    1    2 1
     2    1   25 1
     3    1   26 1
     4    1   27 1
     5    2    3 1
     6    2   28 1
     7    2   29 1
     8    3    4 2
     9    3    5 2
    10    3    6 1
    11    6    7 1
    12    6   30 1
    13    7    8 1
    14    7   31 1
    15    7   32 1
    16    8    9 1
    17    8   33 1
    18    8   34 1
    19    9   10 am
    20    9   35 1
    21   10   11 2
    22   10   12 am
    23   12   13 1
    24   12   36 1
    25   13   14 1
    26   13   37 1
    27   13   38 1
    28   14   15 1
    29   14   22 1
    30   14   39 1
    31   15   20 ar
    32   15   16 ar
    33   16   17 ar
    34   16   40 1
    35   17   18 ar
    36   17   41 1
    37   18   19 ar
    38   18   21 1
    39   19   20 ar
    40   19   42 1
    41   20   43 1
    42   21   44 1
    43   21   45 1
    44   21   46 1
    45   22   23 1
    46   22   24 1
    47   22   53 1
    48   23   47 1
    49   23   48 1
    50   23   49 1
    51   24   50 1
    52   24   51 1
    53   24   52 1
@<TRIPOS>MOLECULE
ZINC67321186
   44    46     0     0     0
SMALL
USER_CHARGES

@<TRIPOS>ATOM
      1 C1          0.7480    1.8047    1.0052 C.3       1 <0>        -0.1737
      2 C2          0.5921    0.2951    0.8108 C.3       1 <0>         0.1044
      3 N1          1.2986   -0.4108    1.8827 N.pl3     1 <0>        -0.6196
      4 C3          1.2985   -1.7905    1.9174 C.ar      1 <0>         0.6691
      5 N2          1.9310   -2.4437    2.8876 N.ar      1 <0>        -0.6029
      6 C4          1.9235   -3.7644    2.9292 C.ar      1 <0>         0.6841
      7 N3          2.5857   -4.4111    3.9531 N.pl3     1 <0>        -0.6382
      8 C5          3.2866   -3.6338    4.9782 C.3       1 <0>         0.1107
      9 C6          3.9313   -4.5855    5.9879 C.3       1 <0>        -0.1731
     10 N4          1.2826   -4.4946    1.9934 N.ar      1 <0>        -0.5394
     11 C7          0.6736   -3.8141    1.0219 C.ar      1 <0>         0.4456
     12 N5          0.6610   -2.4915    0.9840 N.ar      1 <0>        -0.5304
     13 S1         -0.0221   -5.0215   -0.0881 S.3       1 <0>         0.1284
     14 C8          0.8533   -6.5038    0.5687 C.3       1 <0>        -0.1665
     15 C9          1.1991   -5.9601    1.9759 C.3       1 <0>         0.5543
     16 N6          0.1649   -6.3900    2.9204 N.pl3     1 <0>        -0.7552
     17 C10        -0.1809   -7.7410    3.0107 C.ar      1 <0>         0.2152
     18 C11         0.5336   -8.6917    2.2933 C.ar      1 <0>        -0.2057
     19 C12         0.1898  -10.0264    2.3842 C.ar      1 <0>        -0.0398
     20 C13        -0.8647  -10.4178    3.1885 C.ar      1 <0>        -0.1294
     21 C14        -1.5798   -9.4741    3.9049 C.ar      1 <0>         0.0207
     22 C15        -1.2367   -8.1366    3.8230 C.ar      1 <0>        -0.0888
     23 Cl1        -2.1285   -6.9534    4.7275 Cl        1 <0>        -0.0341
     24 Cl2        -2.9032   -9.9701    4.9129 Cl        1 <0>        -0.0212
     25 O1          2.4552   -6.5024    2.3882 O.3       1 <0>        -0.5570
     26 H1          1.8055    2.0673    0.9778 H         1 <0>         0.0714
     27 H2          0.2224    2.3299    0.2077 H         1 <0>         0.0944
     28 H3          0.3271    2.0923    1.9687 H         1 <0>         0.0712
     29 H4         -0.4654    0.0325    0.8383 H         1 <0>         0.0928
     30 H5          1.0131    0.0075   -0.1526 H         1 <0>         0.0934
     31 H6          1.7664    0.0916    2.5681 H         1 <0>         0.4363
     32 H7          4.0591   -3.0253    4.5079 H         1 <0>         0.0934
     33 H8          2.5763   -2.9859    5.4918 H         1 <0>         0.0923
     34 H9          4.4527   -4.0071    6.7506 H         1 <0>         0.0953
     35 H10         3.1588   -5.1939    6.4582 H         1 <0>         0.0686
     36 H11         4.6416   -5.2334    5.4743 H         1 <0>         0.0705
     37 H12         0.1918   -7.3683    0.6242 H         1 <0>         0.1825
     38 H13         1.7517   -6.7267   -0.0069 H         1 <0>         0.1649
     39 H14        -0.2798   -5.7368    3.4830 H         1 <0>         0.4153
     40 H15         1.3572   -8.3876    1.6644 H         1 <0>         0.1352
     41 H16         0.7453  -10.7654    1.8259 H         1 <0>         0.1531
     42 H17        -1.1310  -11.4622    3.2575 H         1 <0>         0.1531
     43 H18         2.4806   -7.4690    2.4028 H         1 <0>         0.4264
     44 H19         2.5870   -5.3802    3.9939 H         1 <0>         0.4323
@<TRIPOS>BOND
     1    1    2 1
     2    1   26 1
     3    1   27 1
     4    1   28 1
     5    2    3 1
     6    2   29 1
     7    2   30 1
     8    3    4 1
     9    3   31 1
    10    4   12 ar
    11    4    5 ar
    12    5    6 ar
    13    6    7 1
    14    6   10 ar
    15    7    8 1
    16    7   44 1
    17    8    9 1
    18    8   32 1
    19    8   33 1
    20    9   34 1
    21    9   35 1
    22    9   36 1
    23   10   15 1
    24   10   11 ar
    25   11   12 ar
    26   11   13 1
    27   13   14 1
    28   14   15 1
    29   14   37 1
    30   14   38 1
    31   15   16 1
    32   15   25 1
    33   16   17 1
    34   16   39 1
    35   17   22 ar
    36   17   18 ar
    37   18   19 ar
    38   18   40 1
    39   19   20 ar
    40   19   41 1
    41   20   21 ar
    42   20   42 1
    43   21   22 ar
    44   21   24 1
    45   22   23 1
    46   25   43 1
@<TRIPOS>MOLECULE
ZINC12859106
   55    56     0     0     0
SMALL
USER_CHARGES
N-(6-amino-1-butyl-2,4-dioxo-pyrimidin-5-yl)-2-[(5-bromo-2-thienyl)methyl-methyl-amino]-N-ethyl-acetamide
@<TRIPOS>ATOM
      1 C1          2.8950   -3.5895   -9.7125 C.3       1 <0>        -0.1544
      2 C2          3.8416   -4.4925   -8.9191 C.3       1 <0>        -0.1213
      3 C3          4.8175   -3.6291   -8.1173 C.3       1 <0>        -0.1398
      4 C4          5.7642   -4.5321   -7.3240 C.3       1 <0>         0.0998
      5 N1          6.6986   -3.7053   -6.5562 N.am      1 <0>        -0.5354
      6 C5          6.3727   -3.3113   -5.2792 C.2       1 <0>         0.5175
      7 C6          7.2615   -2.5323   -4.5670 C.2       1 <0>        -0.1784
      8 C7          8.4755   -2.1592   -5.1738 C.2       1 <0>         0.5739
      9 O1          9.2768   -1.4671   -4.5689 O.2       1 <0>        -0.5210
     10 N2          8.7487   -2.5767   -6.4254 N.am      1 <0>        -0.6611
     11 H1          9.6146   -2.3193   -6.8543 H         1 <0>         0.4458
     12 C8          7.8703   -3.3356   -7.1044 C.2       1 <0>         0.7096
     13 O2          8.1401   -3.6945   -8.2345 O.2       1 <0>        -0.5153
     14 N3          6.9561   -2.1122   -3.2551 N.am      1 <0>        -0.4856
     15 C9          7.7874   -2.5536   -2.1324 C.3       1 <0>         0.0919
     16 C10         7.2665   -3.8932   -1.6080 C.3       1 <0>        -0.1759
     17 C11         5.8984   -1.3038   -3.0346 C.2       1 <0>         0.4865
     18 O3          5.2600   -0.8710   -3.9711 O.2       1 <0>        -0.5158
     19 C12         5.5102   -0.9386   -1.6250 C.3       1 <0>        -0.0285
     20 C13         4.6644    1.2361   -2.2715 C.3       1 <0>        -0.0576
     21 C14         3.7851    0.1308   -0.3048 C.3       1 <0>         0.1000
     22 C15         2.4542    0.8315   -0.3986 C.2       1 <0>        -0.2585
     23 C16         1.2151    0.2966   -0.5214 C.2       1 <0>        -0.0794
     24 C17         0.1234    1.1421   -0.5911 C.2       1 <0>        -0.1352
     25 C18         0.3255    2.4821   -0.5344 C.2       1 <0>        -0.1344
     26 S1          2.1012    2.5814   -0.3780 S.3       1 <0>         0.1534
     27 Br1        -0.9434    3.8821   -0.6098 Br        1 <0>         0.0743
     28 N4          5.1759   -3.6894   -4.7191 N.pl3     1 <0>        -0.8236
     29 H2          2.1997   -4.2047  -10.2837 H         1 <0>         0.0616
     30 H3          2.3372   -2.9542   -9.0245 H         1 <0>         0.0531
     31 H4          3.4736   -2.9664  -10.3944 H         1 <0>         0.0578
     32 H5          4.3994   -5.1278   -9.6071 H         1 <0>         0.0723
     33 H6          3.2630   -5.1156   -8.2372 H         1 <0>         0.0654
     34 H7          4.2598   -2.9937   -7.4293 H         1 <0>         0.0667
     35 H8          5.3962   -3.0060   -8.7992 H         1 <0>         0.0795
     36 H9          6.3220   -5.1674   -8.0119 H         1 <0>         0.1185
     37 H10         5.1856   -5.1552   -6.6420 H         1 <0>         0.0943
     38 H11         8.8180   -2.6705   -2.4674 H         1 <0>         0.1058
     39 H12         7.7463   -1.8107   -1.3358 H         1 <0>         0.0861
     40 H13         6.2359   -3.7763   -1.2730 H         1 <0>         0.0523
     41 H14         7.3076   -4.6360   -2.4046 H         1 <0>         0.0672
     42 H15         7.8850   -4.2216   -0.7727 H         1 <0>         0.0847
     43 H16         6.3403   -0.4240   -1.1412 H         1 <0>         0.1668
     44 H17         5.2700   -1.8443   -1.0681 H         1 <0>         0.1610
     45 H18         5.4035    1.7540   -1.6603 H         1 <0>         0.1251
     46 H19         5.0706    1.0689   -3.2691 H         1 <0>         0.1406
     47 H20         3.7623    1.8437   -2.3436 H         1 <0>         0.1209
     48 H21         4.4723    0.7342    0.2884 H         1 <0>         0.1482
     49 H22         3.6514   -0.8408    0.1707 H         1 <0>         0.1509
     50 H23         1.0823   -0.7744   -0.5639 H         1 <0>         0.1515
     51 H24        -0.8749    0.7418   -0.6888 H         1 <0>         0.1570
     52 H25         4.9979   -3.5036   -3.7839 H         1 <0>         0.4152
     53 H26         4.5093   -4.1421   -5.2591 H         1 <0>         0.4145
     54 N5          4.3164   -0.0683   -1.6696 N.4       1 <0>        -0.3834
     55 H27         3.5959   -0.5197   -2.2454 H         1 <0>         0.4351
@<TRIPOS>BOND
     1    1    2 1
     2    1   29 1
     3    1   30 1
     4    1   31 1
     5    2    3 1
     6    2   32 1
     7    2   33 1
     8    3    4 1
     9    3   34 1
    10    3   35 1
    11    4    5 1
    12    4   36 1
    13    4   37 1
    14    5   12 am
    15    5    6 1
    16    6    7 2
    17    6   28 1
    18    7    8 1
    19    7   14 1
    20    8    9 2
    21    8   10 am
    22   10   11 1
    23   10   12 am
    24   12   13 2
    25   14   15 1
    26   14   17 am
    27   15   16 1
    28   15   38 1
    29   15   39 1
    30   16   40 1
    31   16   41 1
    32   16   42 1
    33   17   18 2
    34   17   19 1
    35   19   43 1
    36   19   44 1
    37   19   54 1
    38   20   45 1
    39   20   46 1
    40   20   47 1
    41   20   54 1
    42   21   22 1
    43   21   48 1
    44   21   49 1
    45   21   54 1
    46   22   26 1
    47   22   23 2
    48   23   24 1
    49   23   50 1
    50   24   25 2
    51   24   51 1
    52   25   26 1
    53   25   27 1
    54   28   52 1
    55   28   53 1
    56   54   55 1
@<TRIPOS>MOLECULE
ZINC27376335
   65    68     0     0     0
SMALL
USER_CHARGES
2-[[2-[4-[2-oxo-2-(1-piperidyl)ethyl]piperazin-1-yl]acetyl]amino]-4,5,6,7-tetrahydrobenzothiophene-3-carboxamide
@<TRIPOS>ATOM
      1 C1          3.5999   -8.4104    0.4657 C.3       1 <0>        -0.1284
      2 C2          4.4299   -7.3115    1.1333 C.3       1 <0>        -0.1379
      3 C3          3.4952   -6.3501    1.8743 C.3       1 <0>         0.1042
      4 N1          2.4835   -5.8536    0.9315 N.am      1 <0>        -0.5841
      5 C4          1.6868   -6.8274    0.1727 C.3       1 <0>         0.0931
      6 C5          2.6456   -7.7833   -0.5532 C.3       1 <0>        -0.1375
      7 C6          2.2862   -4.5302    0.7701 C.2       1 <0>         0.5015
      8 O1          2.9468   -3.7366    1.4061 O.2       1 <0>        -0.5330
      9 C7          1.2446   -4.0366   -0.2008 C.3       1 <0>        -0.0291
     10 N2          1.2247   -2.5678   -0.1927 N.4       1 <0>        -0.3903
     11 C8          0.3968   -2.0463   -1.2892 C.3       1 <0>         0.0024
     12 C9          0.4661   -0.5173   -1.2945 C.3       1 <0>         0.0272
     13 N3          0.0021   -0.0041    0.0020 N.3       1 <0>        -0.5235
     14 C10         0.8300   -0.5256    1.0985 C.3       1 <0>         0.0221
     15 C11         0.7607   -2.0545    1.1038 C.3       1 <0>        -0.0024
     16 C12        -0.0178    1.4648    0.0101 C.3       1 <0>         0.0406
     17 C13        -0.7232    1.9508    1.2500 C.2       1 <0>         0.5098
     18 O2         -1.1658    1.1522    2.0483 O.2       1 <0>        -0.4907
     19 N4         -0.8623    3.2729    1.4717 N.am      1 <0>        -0.6294
     20 C14        -1.5113    3.7201    2.6125 C.2       1 <0>         0.0652
     21 C15        -1.7457    5.0273    3.0148 C.2       1 <0>        -0.2141
     22 C16        -2.4603    5.2277    4.2639 C.2       1 <0>        -0.0676
     23 C17        -2.8138    4.0966    4.9122 C.2       1 <0>        -0.1997
     24 S1         -2.2198    2.7823    3.8856 S.3       1 <0>         0.2157
     25 C18        -3.5468    3.9933    6.2140 C.3       1 <0>        -0.0396
     26 C19        -3.5139    5.3676    6.8982 C.3       1 <0>        -0.1147
     27 C20        -3.9094    6.4372    5.8760 C.3       1 <0>        -0.1211
     28 C21        -2.7993    6.5986    4.8360 C.3       1 <0>        -0.0628
     29 C22        -1.2929    6.1641    2.2070 C.2       1 <0>         0.5818
     30 O3         -2.0220    6.6319    1.3520 O.2       1 <0>        -0.5404
     31 N5         -0.0694    6.6911    2.4113 N.am      1 <0>        -0.8704
     32 H1          3.0189   -8.9462    1.2308 H         1 <0>         0.0712
     33 H2          4.2708   -9.1160   -0.0462 H         1 <0>         0.0764
     34 H3          5.1325   -7.7655    1.8476 H         1 <0>         0.0872
     35 H4          4.9926   -6.7596    0.3659 H         1 <0>         0.0693
     36 H5          3.0041   -6.8818    2.7026 H         1 <0>         0.0830
     37 H6          4.0781   -5.5072    2.2740 H         1 <0>         0.1013
     38 H7          1.0446   -7.3934    0.8635 H         1 <0>         0.0894
     39 H8          1.0600   -6.2973   -0.5595 H         1 <0>         0.0841
     40 H9          3.2252   -7.2251   -1.3032 H         1 <0>         0.0705
     41 H10         2.0686   -8.5762   -1.0516 H         1 <0>         0.0875
     42 H11         1.4873   -4.3945   -1.2122 H         1 <0>         0.1601
     43 H12         0.2566   -4.4184    0.0959 H         1 <0>         0.1579
     44 H13         0.7711   -2.4346   -2.2479 H         1 <0>         0.1397
     45 H14        -0.6457   -2.3666   -1.1458 H         1 <0>         0.1395
     46 H15         1.5047   -0.1979   -1.4660 H         1 <0>         0.0656
     47 H16        -0.1756   -0.1239   -2.0966 H         1 <0>         0.1288
     48 H17         1.8725   -0.2053    0.9551 H         1 <0>         0.0608
     49 H18         0.4557   -0.1373    2.0572 H         1 <0>         0.1393
     50 H19        -0.2777   -2.3749    1.2746 H         1 <0>         0.1342
     51 H20         1.4026   -2.4488    1.9053 H         1 <0>         0.1498
     52 H21         1.0142    1.8455    0.0023 H         1 <0>         0.0849
     53 H22        -0.5498    1.8292   -0.8811 H         1 <0>         0.1262
     54 H23        -0.4610    3.9972    0.7476 H         1 <0>         0.4462
     55 H24        -4.5876    3.6911    6.0258 H         1 <0>         0.0845
     56 H25        -3.0569    3.2431    6.8521 H         1 <0>         0.0819
     57 H26        -4.2228    5.3755    7.7393 H         1 <0>         0.0769
     58 H27        -2.4988    5.5667    7.2724 H         1 <0>         0.0690
     59 H28        -4.8389    6.1357    5.3709 H         1 <0>         0.0685
     60 H29        -4.0665    7.3964    6.3911 H         1 <0>         0.0735
     61 H30        -1.9048    7.0299    5.3091 H         1 <0>         0.0779
     62 H31        -3.1405    7.2599    4.0259 H         1 <0>         0.0765
     63 H32         0.2703    7.5439    1.8053 H         1 <0>         0.4250
     64 H33         0.5895    6.2684    3.1841 H         1 <0>         0.4217
     65 H34         2.2553   -2.2162   -0.3482 H         1 <0>         0.4451
@<TRIPOS>BOND
     1    1    6 1
     2    1    2 1
     3    1   32 1
     4    1   33 1
     5    2    3 1
     6    2   34 1
     7    2   35 1
     8    3    4 1
     9    3   36 1
    10    3   37 1
    11    4    5 1
    12    4    7 am
    13    5    6 1
    14    5   38 1
    15    5   39 1
    16    6   40 1
    17    6   41 1
    18    7    8 2
    19    7    9 1
    20    9   10 1
    21    9   42 1
    22    9   43 1
    23   10   15 1
    24   10   11 1
    25   10   65 1
    26   11   12 1
    27   11   44 1
    28   11   45 1
    29   12   13 1
    30   12   46 1
    31   12   47 1
    32   13   14 1
    33   13   16 1
    34   14   15 1
    35   14   48 1
    36   14   49 1
    37   15   50 1
    38   15   51 1
    39   16   17 1
    40   16   52 1
    41   16   53 1
    42   17   18 2
    43   17   19 am
    44   19   20 1
    45   19   54 1
    46   20   24 1
    47   20   21 2
    48   21   22 1
    49   21   29 1
    50   22   28 1
    51   22   23 2
    52   23   24 1
    53   23   25 1
    54   25   26 1
    55   25   55 1
    56   25   56 1
    57   26   27 1
    58   26   57 1
    59   26   58 1
    60   27   28 1
    61   27   59 1
    62   27   60 1
    63   28   61 1
    64   28   62 1
    65   29   30 2
    66   29   31 am
    67   31   63 1
    68   31   64 1
@<TRIPOS>MOLECULE
ZINC39669936
   69    73     0     0     0
SMALL
USER_CHARGES

@<TRIPOS>ATOM
      1 C1         -2.1457    0.4602    0.6269 C.3       1 <0>        -0.1185
      2 C2         -1.0212   -0.4898    0.3044 C.ar      1 <0>        -0.0413
      3 C3         -1.0617   -1.2411   -0.8523 C.ar      1 <0>        -0.0890
      4 C4         -0.0309   -2.1134   -1.1511 C.ar      1 <0>        -0.1215
      5 C5          1.0490   -2.2393   -0.2915 C.ar      1 <0>         0.0937
      6 C6          1.1006   -1.4927    0.8699 C.ar      1 <0>        -0.1269
      7 C7          0.0655   -0.6067    1.1722 C.ar      1 <0>        -0.1095
      8 C8          0.1170    0.2004    2.4099 C.2       1 <0>         0.5954
      9 O1         -0.0245    1.4065    2.3554 O.2       1 <0>        -0.5139
     10 N1          0.3208   -0.4011    3.5987 N.am      1 <0>        -0.6184
     11 C9          0.6012   -1.8333    3.8556 C.3       1 <0>         0.1033
     12 C10         1.6561   -1.8282    4.9846 C.3       1 <0>        -0.1135
     13 H1          2.6602   -1.8957    4.5661 H         1 <0>         0.1116
     14 C11         1.4622   -0.4789    5.6966 C.3       1 <0>        -0.0716
     15 C12         0.3217    0.2220    4.9441 C.3       1 <0>         0.1080
     16 C13         1.0755   -0.7018    7.1554 C.3       1 <0>        -0.1469
     17 C14         0.9452    0.6531    7.8569 C.3       1 <0>        -0.0079
     18 N2          2.2208    1.3745    7.7729 N.4       1 <0>        -0.5046
     19 C15         2.5394    1.6664    6.3700 C.3       1 <0>        -0.0111
     20 C16         2.7371    0.3543    5.6057 C.3       1 <0>        -0.1346
     21 C17         1.4087   -2.9680    5.9390 C.2       1 <0>         0.5205
     22 O2          0.2742   -3.3252    6.1759 O.2       1 <0>        -0.5158
     23 N3          2.4483   -3.5904    6.5292 N.am      1 <0>        -0.7279
     24 C18         2.2079   -4.6984    7.4569 C.3       1 <0>         0.1247
     25 C19         3.5457   -5.2234    7.9819 C.3       1 <0>        -0.0474
     26 C20         3.2984   -6.3632    8.9362 C.2       1 <0>         0.2677
     27 H2          4.4384   -7.9119    8.1226 H         1 <0>         0.4246
     28 N4          2.5341   -6.3028    9.9869 N.2       1 <0>        -0.4738
     29 C21         2.5349   -7.5039   10.6222 C.ar      1 <0>         0.0105
     30 C22         1.9028   -7.9847   11.7717 C.ar      1 <0>        -0.0201
     31 C23         2.1032   -9.2754   12.1710 C.ar      1 <0>        -0.2015
     32 C24         2.9341  -10.1219   11.4427 C.ar      1 <0>         0.1554
     33 C25         3.5697   -9.6652   10.3019 C.ar      1 <0>        -0.1599
     34 C26         3.3744   -8.3562    9.8847 C.ar      1 <0>         0.0942
     35 N5          3.8378   -7.6079    8.8210 N.pl3     1 <0>        -0.5953
     36 O3          3.1223  -11.4037   11.8547 O.3       1 <0>        -0.3129
     37 C27         2.4371  -11.8112   13.0406 C.3       1 <0>         0.0251
     38 F1          2.0522   -3.0937   -0.5894 F         1 <0>        -0.1325
     39 H3         -1.8885    1.4599    0.2768 H         1 <0>         0.0858
     40 H4         -3.0574    0.1253    0.1321 H         1 <0>         0.0758
     41 H5         -2.3046    0.4824    1.7050 H         1 <0>         0.0658
     42 H6         -1.9008   -1.1480   -1.5259 H         1 <0>         0.1460
     43 H7         -0.0677   -2.6990   -2.0578 H         1 <0>         0.1461
     44 H8          1.9420   -1.5912    1.5399 H         1 <0>         0.1382
     45 H9         -0.3038   -2.3448    4.1834 H         1 <0>         0.1017
     46 H10         1.0043   -2.3080    2.9611 H         1 <0>         0.0979
     47 H11         0.5179    1.2915    4.8680 H         1 <0>         0.0916
     48 H12        -0.6290    0.0435    5.4466 H         1 <0>         0.0877
     49 H13         0.1227   -1.2292    7.2028 H         1 <0>         0.1295
     50 H14         1.8452   -1.2948    7.6494 H         1 <0>         0.0971
     51 H15         0.1641    1.2391    7.3726 H         1 <0>         0.1333
     52 H16         0.6850    0.4965    8.9037 H         1 <0>         0.1403
     53 H17         2.1511    2.2395    8.2877 H         1 <0>         0.4344
     54 H18         1.7203    2.2283    5.9210 H         1 <0>         0.1342
     55 H19         3.4543    2.2568    6.3207 H         1 <0>         0.1399
     56 H20         3.5666   -0.2007    6.0440 H         1 <0>         0.0971
     57 H21         2.9561    0.5716    4.5603 H         1 <0>         0.1177
     58 H22         3.3557   -3.3047    6.3397 H         1 <0>         0.4015
     59 H23         1.6021   -4.3478    8.2925 H         1 <0>         0.0893
     60 H24         1.6818   -5.4994    6.9376 H         1 <0>         0.0768
     61 H25         4.1515   -5.5741    7.1464 H         1 <0>         0.0919
     62 H26         4.0718   -4.4224    8.5012 H         1 <0>         0.1015
     63 H27         1.2564   -7.3361   12.3443 H         1 <0>         0.1357
     64 H28         1.6127   -9.6425   13.0605 H         1 <0>         0.1398
     65 H29         4.2144  -10.3239    9.7391 H         1 <0>         0.1340
     66 H30         2.6736  -12.8530   13.2571 H         1 <0>         0.1050
     67 H31         2.7527  -11.1859   13.8757 H         1 <0>         0.0592
     68 H32         1.3622  -11.7057   12.8936 H         1 <0>         0.0594
     69 H33         2.9536    0.8070    8.1718 H         1 <0>         0.4278
@<TRIPOS>BOND
     1    1    2 1
     2    1   39 1
     3    1   40 1
     4    1   41 1
     5    2    7 ar
     6    2    3 ar
     7    3    4 ar
     8    3   42 1
     9    4    5 ar
    10    4   43 1
    11    5    6 ar
    12    5   38 1
    13    6    7 ar
    14    6   44 1
    15    7    8 1
    16    8    9 2
    17    8   10 am
    18   10   15 1
    19   10   11 1
    20   11   12 1
    21   11   45 1
    22   11   46 1
    23   12   13 1
    24   12   14 1
    25   12   21 1
    26   14   20 1
    27   14   15 1
    28   14   16 1
    29   15   47 1
    30   15   48 1
    31   16   17 1
    32   16   49 1
    33   16   50 1
    34   17   18 1
    35   17   51 1
    36   17   52 1
    37   18   19 1
    38   18   53 1
    39   18   69 1
    40   19   20 1
    41   19   54 1
    42   19   55 1
    43   20   56 1
    44   20   57 1
    45   21   22 2
    46   21   23 am
    47   23   24 1
    48   23   58 1
    49   24   25 1
    50   24   59 1
    51   24   60 1
    52   25   61 1
    53   25   62 1
    54   25   26 1
    55   26   28 2
    56   26   35 1
    57   27   35 1
    58   28   29 1
    59   29   30 ar
    60   29   34 ar
    61   30   31 ar
    62   30   63 1
    63   31   32 ar
    64   31   64 1
    65   32   33 ar
    66   32   36 1
    67   33   34 ar
    68   33   65 1
    69   34   35 1
    70   36   37 1
    71   37   66 1
    72   37   67 1
    73   37   68 1
@<TRIPOS>MOLECULE
ZINC52634745
   60    64     0     0     0
SMALL
USER_CHARGES

@<TRIPOS>ATOM
      1 C1         -0.8723    1.0821    0.4243 C.3       1 <0>        -0.1216
      2 C2         -0.6835   -0.4059    0.2787 C.ar      1 <0>        -0.0062
      3 C3         -0.5010   -0.9513   -0.9570 C.ar      1 <0>        -0.0964
      4 C4         -0.3240   -2.3319   -1.1060 C.ar      1 <0>        -0.1154
      5 C5         -0.3335   -3.1628    0.0113 C.ar      1 <0>        -0.0414
      6 C6         -0.5185   -2.6147    1.2692 C.ar      1 <0>         0.0471
      7 C7         -0.6900   -1.2256    1.4126 C.ar      1 <0>         0.1019
      8 N1         -0.8398   -0.9818    2.7384 N.2       1 <0>        -0.4723
      9 C8         -0.7680   -2.1001    3.4010 C.2       1 <0>         0.3336
     10 N2         -0.5799   -3.1397    2.5457 N.pl3     1 <0>        -0.5764
     11 C9         -0.8898   -2.2254    4.8978 C.3       1 <0>        -0.0886
     12 H1         -1.4670   -1.3745    5.2595 H         1 <0>         0.1649
     13 C10         0.5033   -2.1349    5.4919 C.2       1 <0>         0.2906
     14 C11         0.9284   -3.1911    6.2442 C.2       1 <0>        -0.3682
     15 C12         0.1115   -4.2955    6.4492 C.2       1 <0>         0.3214
     16 N3         -1.0994   -4.4217    5.9578 N.2       1 <0>        -0.6185
     17 C13        -1.6729   -3.4869    5.2012 C.2       1 <0>         0.5184
     18 O1         -2.7965   -3.6425    4.7651 O.2       1 <0>        -0.4459
     19 N4          1.2944   -1.0483    5.2833 N.pl3     1 <0>        -0.6729
     20 C14         2.6347   -0.9941    5.8723 C.3       1 <0>         0.0771
     21 C15         3.3081    0.3247    5.4871 C.3       1 <0>         0.1435
     22 H2          3.3054    0.4307    4.4022 H         1 <0>         0.1167
     23 C16         4.7291    0.3283    5.9887 C.ar      1 <0>        -0.1145
     24 C17         4.9931    0.6148    7.3153 C.ar      1 <0>        -0.1039
     25 C18         6.2962    0.6183    7.7761 C.ar      1 <0>        -0.0974
     26 C19         7.3364    0.3360    6.9106 C.ar      1 <0>        -0.1002
     27 C20         7.0730    0.0493    5.5832 C.ar      1 <0>        -0.0317
     28 C21         5.7677    0.0399    5.1239 C.ar      1 <0>        -0.0977
     29 Cl1         8.3788   -0.3055    4.4957 Cl        1 <0>        -0.0596
     30 O2          2.5930    1.4139    6.0739 O.3       1 <0>        -0.5448
     31 C22        -0.1270   -2.9094   -2.4535 C.cat     1 <0>         0.5622
     32 N5         -0.7199   -2.4517   -3.5074 N.pl3     1 <0>        -0.6123
     33 C23        -0.3231   -3.2300   -4.6888 C.3       1 <0>         0.0562
     34 C24         0.6563   -4.2825   -4.1326 C.3       1 <0>         0.0678
     35 N6          0.7047   -3.9730   -2.6939 N.pl3     1 <0>        -0.5594
     36 C25         1.5023   -4.6821   -1.6903 C.3       1 <0>         0.0784
     37 H3          0.0987    1.5608    0.5519 H         1 <0>         0.0848
     38 H4         -1.3569    1.4760   -0.4690 H         1 <0>         0.0774
     39 H5         -1.4951    1.2858    1.2954 H         1 <0>         0.0849
     40 H6         -0.4931   -0.3132   -1.8283 H         1 <0>         0.1440
     41 H7         -0.1978   -4.2282   -0.1027 H         1 <0>         0.1422
     42 H8          1.9137   -3.1680    6.6860 H         1 <0>         0.1459
     43 H9          0.4980   -5.1038    7.0522 H         1 <0>         0.1660
     44 H10         0.9711   -0.3092    4.7446 H         1 <0>         0.4195
     45 H11         2.5576   -1.0592    6.9576 H         1 <0>         0.0920
     46 H12         3.2293   -1.8281    5.4996 H         1 <0>         0.0936
     47 H13         4.1808    0.8362    7.9917 H         1 <0>         0.1299
     48 H14         6.5018    0.8422    8.8125 H         1 <0>         0.1397
     49 H15         8.3547    0.3395    7.2706 H         1 <0>         0.1395
     50 H16         5.5611   -0.1882    4.0887 H         1 <0>         0.1334
     51 H17         2.5547    1.3845    7.0397 H         1 <0>         0.3822
     52 H18        -1.1910   -3.7146   -5.1361 H         1 <0>         0.1288
     53 H19         0.1762   -2.5909   -5.4171 H         1 <0>         0.1287
     54 H20         0.2743   -5.2896   -4.2999 H         1 <0>         0.1215
     55 H21         1.6427   -4.1649   -4.5813 H         1 <0>         0.1218
     56 H22         0.8892   -5.4465   -1.2128 H         1 <0>         0.0895
     57 H23         2.3588   -5.1526   -2.1730 H         1 <0>         0.1102
     58 H24         1.8522   -3.9750   -0.9383 H         1 <0>         0.0978
     59 H25        -1.3369   -1.7034   -3.5167 H         1 <0>         0.4595
     60 H26        -0.4937   -4.0751    2.7876 H         1 <0>         0.4332
@<TRIPOS>BOND
     1    1    2 1
     2    1   37 1
     3    1   38 1
     4    1   39 1
     5    2    7 ar
     6    2    3 ar
     7    3    4 ar
     8    3   40 1
     9    4    5 ar
    10    4   31 1
    11    5    6 ar
    12    5   41 1
    13    6   10 1
    14    6    7 ar
    15    7    8 1
    16    8    9 2
    17    9   10 1
    18    9   11 1
    19   10   60 1
    20   11   12 1
    21   11   17 1
    22   11   13 1
    23   13   14 2
    24   13   19 1
    25   14   15 1
    26   14   42 1
    27   15   16 2
    28   15   43 1
    29   16   17 1
    30   17   18 2
    31   19   20 1
    32   19   44 1
    33   20   21 1
    34   20   45 1
    35   20   46 1
    36   21   22 1
    37   21   23 1
    38   21   30 1
    39   23   28 ar
    40   23   24 ar
    41   24   25 ar
    42   24   47 1
    43   25   26 ar
    44   25   48 1
    45   26   27 ar
    46   26   49 1
    47   27   28 ar
    48   27   29 1
    49   28   50 1
    50   30   51 1
    51   31   35 1
    52   31   32 2
    53   32   33 1
    54   32   59 1
    55   33   34 1
    56   33   52 1
    57   33   53 1
    58   34   35 1
    59   34   54 1
    60   34   55 1
    61   35   36 1
    62   36   56 1
    63   36   57 1
    64   36   58 1
@<TRIPOS>MOLECULE
ZINC63514836
   60    63     0     0     0
SMALL
USER_CHARGES

@<TRIPOS>ATOM
      1 C1         -0.0184    1.5028    0.0103 C.3       1 <0>        -0.1063
      2 C2          0.0021   -0.0041    0.0020 C.ar      1 <0>         0.1582
      3 C3          0.0058   -0.6882   -1.1971 C.ar      1 <0>        -0.1482
      4 C4          0.0339   -2.0710   -1.2021 C.ar      1 <0>        -0.0042
      5 C5          0.0544   -2.7624    0.0125 C.ar      1 <0>        -0.1998
      6 C6          0.0329   -1.9892    1.1729 C.ar      1 <0>         0.1448
      7 N1          0.0219   -0.6707    1.1415 N.ar      1 <0>        -0.4559
      8 S1          0.0135   -3.1332    2.5369 S.3       1 <0>        -0.0482
      9 C7         -0.3821   -4.6721    1.6082 C.3       1 <0>        -0.0874
     10 H1          0.1825   -5.5228    1.9900 H         1 <0>         0.1604
     11 C8          0.1066   -4.2570    0.2021 C.3       1 <0>         0.1485
     12 H2         -0.5243   -4.7330   -0.5486 H         1 <0>         0.1124
     13 N2          1.4906   -4.7151    0.0211 N.3       1 <0>        -0.8248
     14 C9         -1.8626   -4.9531    1.6157 C.2       1 <0>         0.5390
     15 O1         -2.5732   -4.4840    0.7521 O.2       1 <0>        -0.5119
     16 N3         -2.3970   -5.7257    2.5821 N.am      1 <0>        -0.7255
     17 C10        -3.8363   -5.9988    2.5894 C.3       1 <0>         0.1042
     18 C11        -4.1797   -6.8935    3.7821 C.3       1 <0>        -0.1057
     19 C12        -5.6602   -7.1744    3.7896 C.2       1 <0>         0.0769
     20 C13        -6.5760   -6.7318    2.8987 C.ar      1 <0>        -0.1452
     21 C14        -6.4747   -5.8887    1.7026 C.ar      1 <0>        -0.0632
     22 C15        -7.5911   -5.6051    0.9896 C.ar      1 <0>         0.0869
     23 C16        -8.8584   -6.0923    1.3543 C.ar      1 <0>        -0.0325
     24 C17        -9.0525   -6.8744    2.4377 C.ar      1 <0>        -0.1432
     25 C18        -7.9119   -7.2444    3.2819 C.ar      1 <0>         0.3280
     26 N4         -7.8249   -7.9743    4.3658 N.pl3     1 <0>        -0.5650
     27 C19        -6.4212   -8.0139    4.7914 C.3       1 <0>         0.0961
     28 H3         -6.0516   -9.0393    4.7801 H         1 <0>         0.1816
     29 C20        -6.2816   -7.4174    6.1934 C.3       1 <0>        -0.1575
     30 O2         -7.4823   -4.8223   -0.1162 O.3       1 <0>        -0.2976
     31 C21        -8.6847   -4.5486   -0.8381 C.3       1 <0>         0.6031
     32 F1         -9.5924   -3.8917   -0.0004 F         1 <0>        -0.1598
     33 F2         -8.3931   -3.7354   -1.9386 F         1 <0>        -0.1141
     34 F3         -9.2459   -5.7507   -1.2823 F         1 <0>        -0.1600
     35 C22         0.0417   -2.8260   -2.5063 C.3       1 <0>         0.0975
     36 O3          0.0166   -1.8990   -3.5935 O.3       1 <0>        -0.3848
     37 C23         0.0217   -2.5151   -4.8828 C.3       1 <0>         0.0300
     38 H4          1.0042    1.8801    0.0026 H         1 <0>         0.0865
     39 H5         -0.5455    1.8639   -0.8728 H         1 <0>         0.0836
     40 H6         -0.5286    1.8543    0.9071 H         1 <0>         0.0820
     41 H7         -0.0135   -0.1444   -2.1300 H         1 <0>         0.1542
     42 H8          1.8199   -4.5116   -0.9107 H         1 <0>         0.3530
     43 H9          2.0994   -4.3099    0.7162 H         1 <0>         0.3518
     44 H10        -1.8287   -6.1009    3.2728 H         1 <0>         0.4090
     45 H11        -4.3839   -5.0598    2.6700 H         1 <0>         0.0856
     46 H12        -4.1150   -6.5037    1.6644 H         1 <0>         0.0858
     47 H13        -3.6320   -7.8325    3.7015 H         1 <0>         0.1353
     48 H14        -3.9010   -6.3886    4.7071 H         1 <0>         0.1351
     49 H15        -5.5172   -5.4967    1.3928 H         1 <0>         0.1843
     50 H16        -9.7102   -5.8303    0.7442 H         1 <0>         0.1690
     51 H17       -10.0440   -7.2261    2.6816 H         1 <0>         0.1778
     52 H18        -6.6828   -6.4040    6.1987 H         1 <0>         0.0847
     53 H19        -6.8337   -8.0305    6.9057 H         1 <0>         0.0983
     54 H20        -5.2288   -7.3929    6.4746 H         1 <0>         0.1103
     55 H21         0.9439   -3.4345   -2.5684 H         1 <0>         0.0693
     56 H22        -0.8357   -3.4707   -2.5581 H         1 <0>         0.0735
     57 H23         0.0016   -1.7447   -5.6537 H         1 <0>         0.0939
     58 H24         0.9235   -3.1171   -4.9943 H         1 <0>         0.0465
     59 H25        -0.8561   -3.1533   -4.9840 H         1 <0>         0.0453
     60 H26        -8.5641   -8.4178    4.8106 H         1 <0>         0.4581
@<TRIPOS>BOND
     1    1    2 1
     2    1   38 1
     3    1   39 1
     4    1   40 1
     5    2    7 ar
     6    2    3 ar
     7    3    4 ar
     8    3   41 1
     9    4    5 ar
    10    4   35 1
    11    5   11 1
    12    5    6 ar
    13    6    7 ar
    14    6    8 1
    15    8    9 1
    16    9   10 1
    17    9   11 1
    18    9   14 1
    19   11   12 1
    20   11   13 1
    21   13   42 1
    22   13   43 1
    23   14   15 2
    24   14   16 am
    25   16   17 1
    26   16   44 1
    27   17   18 1
    28   17   45 1
    29   17   46 1
    30   18   19 1
    31   18   47 1
    32   18   48 1
    33   19   27 1
    34   19   20 2
    35   20   25 ar
    36   20   21 ar
    37   21   22 ar
    38   21   49 1
    39   22   23 ar
    40   22   30 1
    41   23   24 ar
    42   23   50 1
    43   24   25 ar
    44   24   51 1
    45   25   26 2
    46   26   27 1
    47   26   60 1
    48   27   28 1
    49   27   29 1
    50   29   52 1
    51   29   53 1
    52   29   54 1
    53   30   31 1
    54   31   32 1
    55   31   33 1
    56   31   34 1
    57   35   36 1
    58   35   55 1
    59   35   56 1
    60   36   37 1
    61   37   57 1
    62   37   58 1
    63   37   59 1
@<TRIPOS>MOLECULE
ZINC08928025
   67    71     0     0     0
SMALL
USER_CHARGES
[4-(ethyl-hydroxy-BLAHyl)phenyl] 3,4,5-trimethoxybenzoate
@<TRIPOS>ATOM
      1 C1          0.5654   -8.2943    8.5298 C.3       1 <0>        -0.1890
      2 C2          0.5149   -9.7501    8.0618 C.3       1 <0>        -0.0044
      3 C3          2.1335   -9.2218    6.3396 C.3       1 <0>        -0.0027
      4 C4          2.5976   -9.6249    4.9373 C.3       1 <0>        -0.0853
      5 C5          1.4781   -9.3015    3.9538 C.2       1 <0>        -0.0033
      6 C6          0.2183   -9.0963    4.4079 C.2       1 <0>        -0.3178
      7 S1         -0.7386   -8.7568    2.9555 S.3       1 <0>         0.2347
      8 C7          0.5008   -8.8917    1.7831 C.2       1 <0>         0.1570
      9 C8          1.6560   -9.1879    2.5193 C.2       1 <0>        -0.2552
     10 C9          2.9187   -9.3671    1.7574 C.2       1 <0>         0.4589
     11 N1          2.9210   -9.0341    0.4963 N.2       1 <0>        -0.6240
     12 C10         1.8026   -8.4106   -0.2000 C.3       1 <0>         0.3940
     13 H1          1.8038   -8.7379   -1.2397 H         1 <0>         0.1330
     14 N2          0.5119   -8.7702    0.4161 N.pl3     1 <0>        -0.6877
     15 C11         1.9686   -6.9135   -0.1557 C.ar      1 <0>        -0.1239
     16 C12         3.2346   -6.3611   -0.0920 C.ar      1 <0>        -0.0712
     17 C13         3.3895   -4.9890   -0.0517 C.ar      1 <0>        -0.1168
     18 C14         2.2735   -4.1650   -0.0753 C.ar      1 <0>         0.0943
     19 C15         1.0041   -4.7220   -0.1334 C.ar      1 <0>        -0.1163
     20 C16         0.8548   -6.0945   -0.1793 C.ar      1 <0>        -0.0890
     21 O1          2.4232   -2.8148   -0.0358 O.3       1 <0>        -0.2901
     22 C17         2.8037   -2.2078   -1.1773 C.2       1 <0>         0.5120
     23 O2          3.0827   -2.8729   -2.1553 O.2       1 <0>        -0.4760
     24 C18         2.8814   -0.7365   -1.2395 C.ar      1 <0>        -0.0567
     25 C19         3.2758   -0.1056   -2.4227 C.ar      1 <0>        -0.1661
     26 C20         3.3474    1.2735   -2.4783 C.ar      1 <0>         0.1416
     27 C21         3.0269    2.0343   -1.3570 C.ar      1 <0>         0.0725
     28 C22         2.6337    1.4085   -0.1768 C.ar      1 <0>         0.1383
     29 C23         2.5604    0.0297   -0.1155 C.ar      1 <0>        -0.1770
     30 O3          2.3214    2.1547    0.9165 O.3       1 <0>        -0.2961
     31 C24         1.9259    1.4472    2.0934 C.3       1 <0>         0.0216
     32 O4          3.0985    3.3901   -1.4143 O.3       1 <0>        -0.3112
     33 C25         1.9183    4.0854   -1.8214 C.3       1 <0>         0.0355
     34 O5          3.7365    1.8878   -3.6276 O.3       1 <0>        -0.2952
     35 C26         4.0562    1.0459   -4.7371 C.3       1 <0>         0.0200
     36 O6          4.0299   -9.8592    2.3523 O.3       1 <0>        -0.4598
     37 C27        -0.2344   -9.1533    5.8326 C.3       1 <0>         0.1099
     38 H2          1.5617   -7.8896    8.3512 H         1 <0>         0.0810
     39 H3         -0.1690   -7.7091    7.9764 H         1 <0>         0.0795
     40 H4          0.3396   -8.2470    9.5951 H         1 <0>         0.1065
     41 H5         -0.4813  -10.1547    8.2404 H         1 <0>         0.1312
     42 H6          1.2493  -10.3353    8.6153 H         1 <0>         0.1322
     43 H7          2.0612   -8.1358    6.3982 H         1 <0>         0.1328
     44 H8          2.8567   -9.5743    7.0749 H         1 <0>         0.1367
     45 H9          2.8108  -10.6935    4.9134 H         1 <0>         0.1090
     46 H10         3.4940   -9.0645    4.6714 H         1 <0>         0.1284
     47 H11        -0.2869   -8.9130   -0.1154 H         1 <0>         0.4251
     48 H12         4.1030   -7.0029   -0.0733 H         1 <0>         0.1401
     49 H13         4.3785   -4.5580   -0.0016 H         1 <0>         0.1331
     50 H14         0.1336   -4.0828   -0.1474 H         1 <0>         0.1358
     51 H15        -0.1330   -6.5284   -0.2291 H         1 <0>         0.1278
     52 H16         3.5248   -0.6953   -3.2926 H         1 <0>         0.1529
     53 H17         2.2550   -0.4552    0.7999 H         1 <0>         0.1507
     54 H18         1.7055    2.1594    2.8886 H         1 <0>         0.1077
     55 H19         1.0365    0.8547    1.8795 H         1 <0>         0.0588
     56 H20         2.7342    0.7880    2.4099 H         1 <0>         0.0600
     57 H21         1.6350    3.7644   -2.8238 H         1 <0>         0.0485
     58 H22         1.1082    3.8640   -1.1264 H         1 <0>         0.0479
     59 H23         2.1114    5.1581   -1.8244 H         1 <0>         0.0991
     60 H24         4.8786    0.3840   -4.4658 H         1 <0>         0.0617
     61 H25         3.1834    0.4502   -5.0045 H         1 <0>         0.0604
     62 H26         4.3504    1.6613   -5.5873 H         1 <0>         0.1098
     63 H27         4.7923   -9.9326    1.7620 H         1 <0>         0.4169
     64 H28        -0.3976   -8.1428    6.2071 H         1 <0>         0.1411
     65 H29        -1.1596   -9.7254    5.9016 H         1 <0>         0.1379
     66 N3          0.8205   -9.8392    6.6177 N.4       1 <0>        -0.3939
     67 H30         0.8515  -10.8283    6.3436 H         1 <0>         0.4327
@<TRIPOS>BOND
     1    1    2 1
     2    1   38 1
     3    1   39 1
     4    1   40 1
     5    2   41 1
     6    2   42 1
     7    2   66 1
     8    3    4 1
     9    3   43 1
    10    3   44 1
    11    3   66 1
    12    4    5 1
    13    4   45 1
    14    4   46 1
    15    5    9 1
    16    5    6 2
    17    6    7 1
    18    6   37 1
    19    7    8 1
    20    8   14 1
    21    8    9 2
    22    9   10 1
    23   10   11 2
    24   10   36 1
    25   11   12 1
    26   12   13 1
    27   12   14 1
    28   12   15 1
    29   14   47 1
    30   15   20 ar
    31   15   16 ar
    32   16   17 ar
    33   16   48 1
    34   17   18 ar
    35   17   49 1
    36   18   19 ar
    37   18   21 1
    38   19   20 ar
    39   19   50 1
    40   20   51 1
    41   21   22 1
    42   22   23 2
    43   22   24 1
    44   24   29 ar
    45   24   25 ar
    46   25   26 ar
    47   25   52 1
    48   26   27 ar
    49   26   34 1
    50   27   28 ar
    51   27   32 1
    52   28   29 ar
    53   28   30 1
    54   29   53 1
    55   30   31 1
    56   31   54 1
    57   31   55 1
    58   31   56 1
    59   32   33 1
    60   33   57 1
    61   33   58 1
    62   33   59 1
    63   34   35 1
    64   35   60 1
    65   35   61 1
    66   35   62 1
    67   36   63 1
    68   37   64 1
    69   37   65 1
    70   37   66 1
    71   66   67 1
@<TRIPOS>MOLECULE
ZINC20685332
   72    76     0     0     0
SMALL
USER_CHARGES
1-(2,6-diethylphenyl)-3-[[2-oxo-1-[[4-(2-pyridyl)piperazin-1-yl]methyl]indolin-3-ylidene]amino]thiourea
@<TRIPOS>ATOM
      1 C1          6.1788   12.0927   -2.5761 C.3       1 <0>        -0.1461
      2 C2          5.6641   10.6631   -2.3970 C.3       1 <0>        -0.0865
      3 C3          4.7063   10.6160   -1.2345 C.ar      1 <0>        -0.0622
      4 C4          5.1608   10.2670    0.0220 C.ar      1 <0>        -0.1179
      5 C5          4.2815   10.2180    1.0882 C.ar      1 <0>        -0.0974
      6 C6          2.9458   10.5236    0.9013 C.ar      1 <0>        -0.1187
      7 C7          2.4858   10.8783   -0.3517 C.ar      1 <0>        -0.0390
      8 C8          3.3664   10.9285   -1.4246 C.ar      1 <0>         0.1253
      9 N1          2.9038   11.2875   -2.6947 N.pl3     1 <0>        -0.6210
     10 C9          2.0773   10.4634   -3.3686 C.2       1 <0>         0.5806
     11 S1          1.7181    8.9112   -2.7419 S.2       1 <0>        -0.5633
     12 N2          1.5335   10.8612   -4.5359 N.pl3     1 <0>        -0.5398
     13 N3          1.8275   12.1314   -5.0487 N.2       1 <0>        -0.1703
     14 C10         1.2982   12.5186   -6.1848 C.2       1 <0>         0.0945
     15 C11         1.4926   13.8148   -6.8753 C.ar      1 <0>        -0.0999
     16 C12         2.2348   14.9516   -6.5750 C.ar      1 <0>        -0.0298
     17 C13         2.2149   16.0297   -7.4371 C.ar      1 <0>        -0.1355
     18 C14         1.4583   15.9778   -8.5958 C.ar      1 <0>        -0.0598
     19 C15         0.7139   14.8560   -8.8996 C.ar      1 <0>        -0.1431
     20 C16         0.7260   13.7580   -8.0462 C.ar      1 <0>         0.1604
     21 N4          0.0838   12.5268   -8.1155 N.am      1 <0>        -0.5307
     22 C17         0.3799   11.7578   -7.0539 C.2       1 <0>         0.5513
     23 O1         -0.0363   10.6332   -6.8458 O.2       1 <0>        -0.4855
     24 C18        -0.8039   12.1195   -9.2074 C.3       1 <0>         0.2794
     25 N5         -0.0176   11.4569  -10.2565 N.3       1 <0>        -0.5575
     26 C19         0.6369   12.4438  -11.1267 C.3       1 <0>         0.0416
     27 C20         1.5074   11.7163  -12.1541 C.3       1 <0>         0.0555
     28 N6          0.6701   10.7989  -12.9397 N.pl3     1 <0>        -0.4725
     29 C21         0.0156    9.8120  -12.0695 C.3       1 <0>         0.0187
     30 C22        -0.8548   10.5395  -11.0421 C.3       1 <0>         0.0622
     31 C23         1.4142   10.1719  -13.9323 C.ar      1 <0>         0.3599
     32 C24         2.1069   10.9395  -14.8634 C.ar      1 <0>        -0.1488
     33 C25         2.8482   10.3026  -15.8420 C.ar      1 <0>         0.0221
     34 C26         2.8627    8.9140  -15.8640 C.ar      1 <0>        -0.1487
     35 C27         2.1472    8.2153  -14.9128 C.ar      1 <0>         0.1425
     36 N7          1.4531    8.8496  -13.9867 N.ar      1 <0>        -0.5069
     37 C28         1.0298   11.2102   -0.5546 C.3       1 <0>        -0.0979
     38 C29         0.3834   11.5171    0.7977 C.3       1 <0>        -0.1527
     39 H1          6.8779   12.1271   -3.4247 H         1 <0>         0.0605
     40 H2          6.6974   12.4131   -1.6605 H         1 <0>         0.0627
     41 H3          5.3311   12.7658   -2.7719 H         1 <0>         0.0480
     42 H4          5.1455   10.3427   -3.3126 H         1 <0>         0.0659
     43 H5          6.5118    9.9900   -2.2012 H         1 <0>         0.0788
     44 H6          6.2033   10.0275    0.1712 H         1 <0>         0.1277
     45 H7          4.6386    9.9402    2.0688 H         1 <0>         0.1278
     46 H8          2.2616   10.4843    1.7360 H         1 <0>         0.1330
     47 H9          3.2145   12.2425   -3.1436 H         1 <0>         0.4352
     48 H10         0.8589   10.1886   -5.0860 H         1 <0>         0.4646
     49 H11         2.8247   14.9909   -5.6712 H         1 <0>         0.1391
     50 H12         2.7896   16.9148   -7.2074 H         1 <0>         0.1405
     51 H13         1.4472   16.8247   -9.2658 H         1 <0>         0.1400
     52 H14         0.1244   14.8292   -9.8041 H         1 <0>         0.1296
     53 H15        -1.5627   11.4224   -8.8224 H         1 <0>         0.1160
     54 H16        -1.3005   13.0070   -9.6267 H         1 <0>         0.0843
     55 H17        -0.1284   13.0377  -11.6479 H         1 <0>         0.0638
     56 H18         1.2659   13.1097  -10.5177 H         1 <0>         0.1066
     57 H19         1.9757   12.4520  -12.8245 H         1 <0>         0.1115
     58 H20         2.2897   11.1450  -11.6330 H         1 <0>         0.0772
     59 H21        -0.6134    9.1461  -12.6786 H         1 <0>         0.1048
     60 H22         0.7808    9.2181  -11.5483 H         1 <0>         0.0797
     61 H23        -1.3231    9.8046  -10.3708 H         1 <0>         0.1092
     62 H24        -1.6372   11.1116  -11.5623 H         1 <0>         0.0659
     63 H25         2.0698   12.0180  -14.8199 H         1 <0>         0.1819
     64 H26         3.3995   10.8722  -16.5755 H         1 <0>         0.1776
     65 H27         3.4283    8.3863  -16.6176 H         1 <0>         0.1834
     66 H28         2.1557    7.1354  -14.9262 H         1 <0>         0.2072
     67 H29         0.9420   12.0887   -1.2108 H         1 <0>         0.0611
     68 H30         0.5196   10.3533   -1.0188 H         1 <0>         0.0988
     69 H31        -0.6793   11.7593    0.6496 H         1 <0>         0.0577
     70 H32         0.8936   12.3740    1.2619 H         1 <0>         0.0567
     71 H33         0.4712   10.6386    1.4539 H         1 <0>         0.0631
     72 H34         0.8981    8.2522  -13.2484 H         1 <0>         0.4776
@<TRIPOS>BOND
     1    1    2 1
     2    1   39 1
     3    1   40 1
     4    1   41 1
     5    2    3 1
     6    2   42 1
     7    2   43 1
     8    3    8 ar
     9    3    4 ar
    10    4    5 ar
    11    4   44 1
    12    5    6 ar
    13    5   45 1
    14    6    7 ar
    15    6   46 1
    16    7    8 ar
    17    7   37 1
    18    8    9 1
    19    9   10 1
    20    9   47 1
    21   10   11 2
    22   10   12 1
    23   12   13 1
    24   12   48 1
    25   13   14 2
    26   14   22 1
    27   14   15 1
    28   15   20 ar
    29   15   16 ar
    30   16   17 ar
    31   16   49 1
    32   17   18 ar
    33   17   50 1
    34   18   19 ar
    35   18   51 1
    36   19   20 ar
    37   19   52 1
    38   20   21 1
    39   21   22 am
    40   21   24 1
    41   22   23 2
    42   24   25 1
    43   24   53 1
    44   24   54 1
    45   25   30 1
    46   25   26 1
    47   26   27 1
    48   26   55 1
    49   26   56 1
    50   27   28 1
    51   27   57 1
    52   27   58 1
    53   28   29 1
    54   28   31 1
    55   29   30 1
    56   29   59 1
    57   29   60 1
    58   30   61 1
    59   30   62 1
    60   31   36 ar
    61   31   32 ar
    62   32   33 ar
    63   32   63 1
    64   33   34 ar
    65   33   64 1
    66   34   35 ar
    67   34   65 1
    68   35   36 ar
    69   35   66 1
    70   36   72 1
    71   37   38 1
    72   37   67 1
    73   37   68 1
    74   38   69 1
    75   38   70 1
    76   38   71 1
@<TRIPOS>MOLECULE
ZINC39228797
   69    73     0     0     0
SMALL
USER_CHARGES

@<TRIPOS>ATOM
      1 C1         -0.0794    1.3033   -0.0828 C.3       1 <0>         0.0242
      2 O1         -0.0578   -0.1255   -0.0750 O.3       1 <0>        -0.3143
      3 C2          0.5748   -0.7276    0.9674 C.ar      1 <0>         0.1195
      4 C3          1.1629    0.0480    1.9628 C.ar      1 <0>        -0.1633
      5 C4          1.8077   -0.5465    3.0245 C.ar      1 <0>        -0.0833
      6 C5          1.8767   -1.9321    3.1103 C.ar      1 <0>         0.0758
      7 N1          2.4399   -2.7955    4.0292 N.pl3     1 <0>        -0.5665
      8 C6          2.2245   -4.0864    3.6460 C.2       1 <0>         0.0422
      9 H1          2.9183   -2.5240    4.8282 H         1 <0>         0.4232
     10 C7          2.6619   -5.3453    4.3579 C.3       1 <0>         0.0607
     11 N2          1.8685   -6.4728    3.8446 N.4       1 <0>        -0.3660
     12 C8          1.9452   -6.5233    2.3786 C.3       1 <0>        -0.0070
     13 C9          1.1232   -5.3714    1.7820 C.3       1 <0>        -0.0656
     14 C10         1.5302   -4.1039    2.4892 C.2       1 <0>        -0.1743
     15 C11         1.2823   -2.7210    2.1055 C.ar      1 <0>        -0.0531
     16 C12         0.6262   -2.1052    1.0368 C.ar      1 <0>        -0.1164
     17 C13         2.3893   -7.7280    4.4024 C.3       1 <0>        -0.0284
     18 C14         2.1813   -7.7389    5.8950 C.2       1 <0>         0.4985
     19 O2          1.6512   -6.7940    6.4404 O.2       1 <0>        -0.5192
     20 N3          2.5841   -8.7986    6.6238 N.am      1 <0>        -0.6266
     21 C15         2.4763   -8.7700    8.0218 C.ar      1 <0>         0.1091
     22 C16         1.4105   -8.1145    8.6222 C.ar      1 <0>        -0.1492
     23 C17         1.3040   -8.0862   10.0025 C.ar      1 <0>         0.0865
     24 C18         2.2664   -8.7160   10.7884 C.ar      1 <0>         0.1668
     25 C19         3.3316   -9.3717   10.1880 C.ar      1 <0>        -0.1597
     26 C20         3.4354   -9.4041    8.8072 C.ar      1 <0>         0.1073
     27 O3          4.4772  -10.0514    8.2184 O.3       1 <0>        -0.3188
     28 C21         5.4238  -10.6798    9.0850 C.3       1 <0>         0.0254
     29 N4          2.1588   -8.6870   12.1856 N.am      1 <0>        -0.6614
     30 C22         3.2699   -8.6240   12.9459 C.2       1 <0>         0.5665
     31 O4          4.3670   -8.6747   12.4243 O.2       1 <0>        -0.5193
     32 C23         3.1547   -8.4934   14.4137 C.ar      1 <0>        -0.1449
     33 C24         1.8966   -8.4407   15.0162 C.ar      1 <0>        -0.0838
     34 C25         1.7961   -8.3193   16.3867 C.ar      1 <0>        -0.1253
     35 C26         2.9388   -8.2496   17.1638 C.ar      1 <0>        -0.0845
     36 C27         4.1889   -8.3008   16.5729 C.ar      1 <0>        -0.1259
     37 C28         4.3035   -8.4280   15.2040 C.ar      1 <0>        -0.0548
     38 O5          0.2596   -7.4429   10.5911 O.3       1 <0>        -0.3119
     39 C29        -0.6895   -6.8186    9.7242 C.3       1 <0>         0.0291
     40 H2          0.9425    1.6821   -0.1021 H         1 <0>         0.0584
     41 H3         -0.6135    1.6538   -0.9660 H         1 <0>         0.1060
     42 H4         -0.5837    1.6640    0.8136 H         1 <0>         0.0582
     43 H5          1.1132    1.1252    1.9016 H         1 <0>         0.1412
     44 H6          2.2608    0.0646    3.7911 H         1 <0>         0.1320
     45 H7          3.7199   -5.5251    4.1669 H         1 <0>         0.1432
     46 H8          2.4938   -5.2372    5.4295 H         1 <0>         0.1592
     47 H9          2.9850   -6.4275    2.0658 H         1 <0>         0.1364
     48 H10         1.5463   -7.4746    2.0265 H         1 <0>         0.1423
     49 H11         1.3312   -5.2827    0.7157 H         1 <0>         0.1238
     50 H12         0.0604   -5.5571    1.9369 H         1 <0>         0.1008
     51 H13         0.1652   -2.7046    0.2658 H         1 <0>         0.1359
     52 H14         1.8615   -8.5707    3.9558 H         1 <0>         0.1700
     53 H15         3.4540   -7.8088    4.1834 H         1 <0>         0.1668
     54 H16         2.9487   -9.5811    6.1814 H         1 <0>         0.4247
     55 H17         0.6644   -7.6263    8.0129 H         1 <0>         0.1583
     56 H18         4.0778   -9.8600   10.7973 H         1 <0>         0.1655
     57 H19         5.8747   -9.9301    9.7352 H         1 <0>         0.0649
     58 H20         4.9180  -11.4305    9.6922 H         1 <0>         0.0599
     59 H21         6.2007  -11.1581    8.4886 H         1 <0>         0.1064
     60 H22         1.2847   -8.7121   12.6054 H         1 <0>         0.4185
     61 H23         1.0039   -8.4947   14.4108 H         1 <0>         0.1259
     62 H24         0.8234   -8.2781   16.8541 H         1 <0>         0.1332
     63 H25         2.8546   -8.1546   18.2363 H         1 <0>         0.1322
     64 H26         5.0769   -8.2456   17.1851 H         1 <0>         0.1344
     65 H27         5.2798   -8.4726   14.7444 H         1 <0>         0.1376
     66 H28        -0.1868   -6.0661    9.1168 H         1 <0>         0.0577
     67 H29        -1.1374   -7.5703    9.0743 H         1 <0>         0.0552
     68 H30        -1.4684   -6.3433   10.3204 H         1 <0>         0.1054
     69 H31         0.9059   -6.3591    4.1251 H         1 <0>         0.4346
@<TRIPOS>BOND
     1    1    2 1
     2    1   40 1
     3    1   41 1
     4    1   42 1
     5    2    3 1
     6    3    4 ar
     7    3   16 ar
     8    4    5 ar
     9    4   43 1
    10    5    6 ar
    11    5   44 1
    12    6    7 1
    13    6   15 ar
    14    7    9 1
    15    7    8 1
    16    8   14 2
    17    8   10 1
    18   10   11 1
    19   10   45 1
    20   10   46 1
    21   11   12 1
    22   11   17 1
    23   11   69 1
    24   12   13 1
    25   12   47 1
    26   12   48 1
    27   13   49 1
    28   13   50 1
    29   13   14 1
    30   14   15 1
    31   15   16 ar
    32   16   51 1
    33   17   18 1
    34   17   52 1
    35   17   53 1
    36   18   19 2
    37   18   20 am
    38   20   21 1
    39   20   54 1
    40   21   26 ar
    41   21   22 ar
    42   22   23 ar
    43   22   55 1
    44   23   24 ar
    45   23   38 1
    46   24   25 ar
    47   24   29 1
    48   25   26 ar
    49   25   56 1
    50   26   27 1
    51   27   28 1
    52   28   57 1
    53   28   58 1
    54   28   59 1
    55   29   30 am
    56   29   60 1
    57   30   31 2
    58   30   32 1
    59   32   37 ar
    60   32   33 ar
    61   33   34 ar
    62   33   61 1
    63   34   35 ar
    64   34   62 1
    65   35   36 ar
    66   35   63 1
    67   36   37 ar
    68   36   64 1
    69   37   65 1
    70   38   39 1
    71   39   66 1
    72   39   67 1
    73   39   68 1
@<TRIPOS>MOLECULE
ZINC43526692
   69    73     0     0     0
SMALL
USER_CHARGES

@<TRIPOS>ATOM
      1 C1         -2.1199    0.4796   -0.3985 C.3       1 <0>         0.0902
      2 N1         -0.9773   -0.4176   -0.2094 N.pl3     1 <0>        -0.3543
      3 C2         -0.0653   -0.7480   -1.1489 C.2       1 <0>         0.0725
      4 C3          0.8250   -1.5941   -0.5865 C.2       1 <0>        -0.2581
      5 C4          0.4443   -1.7922    0.7550 C.2       1 <0>         0.1346
      6 N2         -0.6379   -1.0770    0.9788 N.2       1 <0>        -0.2669
      7 C5          1.1432   -2.6509    1.7433 C.ar      1 <0>        -0.0306
      8 C6          2.2915   -3.3480    1.3732 C.ar      1 <0>        -0.0889
      9 C7          2.9414   -4.1460    2.2928 C.ar      1 <0>        -0.1760
     10 C8          2.4537   -4.2566    3.5859 C.ar      1 <0>         0.1188
     11 C9          1.3066   -3.5622    3.9612 C.ar      1 <0>         0.1028
     12 C10         0.6553   -2.7566    3.0442 C.ar      1 <0>        -0.1430
     13 O1          0.8293   -3.6721    5.2299 O.3       1 <0>        -0.3020
     14 C11        -0.3516   -2.9318    5.5452 C.3       1 <0>         0.0244
     15 O2          3.0962   -5.0445    4.4889 O.3       1 <0>        -0.3013
     16 C12         4.2664   -5.7285    4.0363 C.3       1 <0>         0.0236
     17 C13        -0.0447   -0.2591   -2.5742 C.3       1 <0>        -0.0337
     18 H1         -0.5462    0.7067   -2.6364 H         1 <0>         0.1201
     19 C14         1.4040   -0.1160   -3.0464 C.3       1 <0>        -0.0015
     20 N3          1.6435   -0.9856   -4.2006 N.4       1 <0>        -0.3747
     21 C15         1.4364   -2.3901   -3.8398 C.3       1 <0>        -0.0154
     22 C16        -0.0111   -2.6087   -3.3939 C.3       1 <0>        -0.1430
     23 C17        -0.7643   -1.2711   -3.4754 C.3       1 <0>        -0.0893
     24 H2         -1.7980   -1.3958   -3.1529 H         1 <0>         0.1220
     25 C18        -0.6947   -0.7657   -4.9225 C.3       1 <0>        -0.1270
     26 C19         0.7775   -0.6073   -5.3198 C.3       1 <0>         0.0178
     27 H3          0.9683    0.4315   -5.5896 H         1 <0>         0.1488
     28 C20         1.0795   -1.5051   -6.5213 C.3       1 <0>         0.1158
     29 N4          2.5083   -1.4343   -6.8369 N.am      1 <0>        -0.7615
     30 C21         3.0074   -2.1482   -7.8654 C.2       1 <0>         0.7111
     31 O3          2.2718   -2.8509   -8.5313 O.2       1 <0>        -0.5485
     32 N5          4.3219   -2.0831   -8.1557 N.am      1 <0>        -0.6747
     33 C22         4.8229   -2.7398   -9.2885 C.ar      1 <0>         0.1110
     34 C23         4.0401   -2.8539  -10.4287 C.ar      1 <0>        -0.0621
     35 C24         4.5354   -3.5009  -11.5443 C.ar      1 <0>        -0.1397
     36 C25         5.8123   -4.0363  -11.5264 C.ar      1 <0>         0.1272
     37 C26         6.5962   -3.9249  -10.3905 C.ar      1 <0>        -0.1702
     38 C27         6.1069   -3.2727   -9.2734 C.ar      1 <0>         0.1078
     39 F1          6.8736   -3.1584   -8.1669 F         1 <0>        -0.1283
     40 F2          6.2938   -4.6689  -12.6187 F         1 <0>        -0.1235
     41 H4         -1.8210    1.5021   -0.1673 H         1 <0>         0.0836
     42 H5         -2.4575    0.4249   -1.4334 H         1 <0>         0.0887
     43 H6         -2.9312    0.1795    0.2647 H         1 <0>         0.0996
     44 H7          1.6769   -2.0399   -1.0783 H         1 <0>         0.1448
     45 H8          2.6729   -3.2640    0.3663 H         1 <0>         0.1262
     46 H9          3.8314   -4.6857    2.0044 H         1 <0>         0.1420
     47 H10        -0.2322   -2.2141    3.3349 H         1 <0>         0.1432
     48 H11        -0.6239   -3.1081    6.5858 H         1 <0>         0.1058
     49 H12        -0.1653   -1.8687    5.3935 H         1 <0>         0.0564
     50 H13        -1.1664   -3.2540    4.8968 H         1 <0>         0.0564
     51 H14         4.0050   -6.3862    3.2073 H         1 <0>         0.0574
     52 H15         5.0066   -5.0009    3.7034 H         1 <0>         0.0574
     53 H16         4.6801   -6.3201    4.8529 H         1 <0>         0.1057
     54 H17         1.5917    0.9199   -3.3288 H         1 <0>         0.1408
     55 H18         2.0776   -0.3961   -2.2365 H         1 <0>         0.1435
     56 H19         1.6479   -3.0203   -4.7036 H         1 <0>         0.1343
     57 H20         2.1099   -2.6574   -3.0256 H         1 <0>         0.1333
     58 H21        -0.4891   -3.3369   -4.0491 H         1 <0>         0.1048
     59 H22        -0.0258   -2.9734   -2.3668 H         1 <0>         0.1108
     60 H23        -1.1777   -1.4847   -5.5842 H         1 <0>         0.1131
     61 H24        -1.1982    0.1982   -4.9974 H         1 <0>         0.1105
     62 H25         0.8106   -2.5341   -6.2827 H         1 <0>         0.1002
     63 H26         0.5004   -1.1683   -7.3812 H         1 <0>         0.1183
     64 H27         3.0952   -0.8738   -6.3057 H         1 <0>         0.3918
     65 H28         4.9213   -1.5820   -7.5809 H         1 <0>         0.4119
     66 H29         3.0437   -2.4373  -10.4437 H         1 <0>         0.1560
     67 H30         3.9259   -3.5895  -12.4314 H         1 <0>         0.1519
     68 H31         7.5917   -4.3435  -10.3785 H         1 <0>         0.1579
     69 H32         2.6041   -0.8759   -4.4890 H         1 <0>         0.4191
@<TRIPOS>BOND
     1    1    2 1
     2    1   41 1
     3    1   42 1
     4    1   43 1
     5    2    6 1
     6    2    3 1
     7    3    4 2
     8    3   17 1
     9    4    5 1
    10    4   44 1
    11    5    6 2
    12    5    7 1
    13    7   12 ar
    14    7    8 ar
    15    8    9 ar
    16    8   45 1
    17    9   10 ar
    18    9   46 1
    19   10   11 ar
    20   10   15 1
    21   11   12 ar
    22   11   13 1
    23   12   47 1
    24   13   14 1
    25   14   48 1
    26   14   49 1
    27   14   50 1
    28   15   16 1
    29   16   51 1
    30   16   52 1
    31   16   53 1
    32   17   18 1
    33   17   23 1
    34   17   19 1
    35   19   20 1
    36   19   54 1
    37   19   55 1
    38   20   26 1
    39   20   21 1
    40   20   69 1
    41   21   22 1
    42   21   56 1
    43   21   57 1
    44   22   23 1
    45   22   58 1
    46   22   59 1
    47   23   24 1
    48   23   25 1
    49   25   26 1
    50   25   60 1
    51   25   61 1
    52   26   27 1
    53   26   28 1
    54   28   29 1
    55   28   62 1
    56   28   63 1
    57   29   30 am
    58   29   64 1
    59   30   31 2
    60   30   32 am
    61   32   33 1
    62   32   65 1
    63   33   38 ar
    64   33   34 ar
    65   34   35 ar
    66   34   66 1
    67   35   36 ar
    68   35   67 1
    69   36   37 ar
    70   36   40 1
    71   37   38 ar
    72   37   68 1
    73   38   39 1
@<TRIPOS>MOLECULE
ZINC64703600
   75    78     0     0     0
SMALL
USER_CHARGES

@<TRIPOS>ATOM
      1 C1         -0.2640    1.4088    0.1594 C.3       1 <0>        -0.1655
      2 C2          0.1063   -0.0620   -0.0417 C.3       1 <0>         0.1761
      3 C3          1.0778   -0.4981    1.0568 C.3       1 <0>        -0.1639
      4 C4         -1.1586   -0.9202    0.0259 C.3       1 <0>        -0.1548
      5 N1          0.7417   -0.2310   -1.3509 N.pl3     1 <0>        -0.7139
      6 C5          1.9870    0.3531   -1.6045 C.2       1 <0>         0.3691
      7 C6          2.7536    0.1636   -2.7147 C.2       1 <0>        -0.0189
      8 N2          3.8818    0.9069   -2.5722 N.2       1 <0>        -0.3800
      9 C7          3.8292    1.5311   -1.4338 C.2       1 <0>         0.1239
     10 N3          2.6628    1.2351   -0.7738 N.pl3     1 <0>        -0.3378
     11 N4          2.4787    1.8475    0.4621 N.2       1 <0>        -0.3228
     12 C8          3.3721    2.6604    0.9560 C.2       1 <0>         0.3736
     13 S1          4.6324    2.6493   -0.3090 S.3       1 <0>         0.0833
     14 N5          3.3517    3.3493    2.1581 N.pl3     1 <0>        -0.5378
     15 C9          2.2098    3.2070    3.0647 C.3       1 <0>         0.0987
     16 C10         4.4721    4.2201    2.5224 C.3       1 <0>         0.1065
     17 C11         4.2132    5.6131    2.0092 C.2       1 <0>         0.4910
     18 O1          3.1933    5.8548    1.3992 O.2       1 <0>        -0.5099
     19 N6          5.1152    6.5904    2.2281 N.am      1 <0>        -0.7324
     20 C12         4.8635    7.9446    1.7292 C.3       1 <0>         0.1216
     21 C13         6.0336    8.8540    2.1097 C.3       1 <0>         0.0435
     22 N7          5.7812   10.2119    1.6094 N.3       1 <0>        -0.5360
     23 C14         5.7860   10.2412    0.1400 C.3       1 <0>         0.0179
     24 C15         5.4612   11.6575   -0.3400 C.3       1 <0>        -0.0029
     25 N8          6.4605   12.5951    0.1887 N.4       1 <0>        -0.3886
     26 C16         6.4269   12.5727    1.6570 C.3       1 <0>        -0.0028
     27 C17         6.7597   11.1641    2.1536 C.3       1 <0>         0.0268
     28 C18         6.1587   13.9518   -0.2871 C.3       1 <0>        -0.0461
     29 C19         2.4172   -0.6995   -3.8708 C.ar      1 <0>        -0.0195
     30 C20         1.7149   -1.8886   -3.6747 C.ar      1 <0>        -0.0839
     31 C21         1.4030   -2.6894   -4.7536 C.ar      1 <0>        -0.1432
     32 C22         1.7876   -2.3135   -6.0332 C.ar      1 <0>         0.1258
     33 C23         2.4865   -1.1309   -6.2323 C.ar      1 <0>        -0.2022
     34 C24         2.7970   -0.3222   -5.1589 C.ar      1 <0>        -0.0550
     35 O2          1.4792   -3.1057   -7.0941 O.3       1 <0>        -0.3171
     36 C25         1.9052   -2.6589   -8.3829 C.3       1 <0>         0.0262
     37 H1          0.6081    2.0330   -0.0354 H         1 <0>         0.0801
     38 H2         -1.0652    1.6791   -0.5285 H         1 <0>         0.0494
     39 H3         -0.5988    1.5622    1.1853 H         1 <0>         0.0602
     40 H4          0.6619   -0.2437    2.0317 H         1 <0>         0.0624
     41 H5          1.2330   -1.5754    0.9979 H         1 <0>         0.0518
     42 H6          2.0307    0.0141    0.9235 H         1 <0>         0.0765
     43 H7         -1.8507   -0.6095   -0.7567 H         1 <0>         0.0628
     44 H8         -0.8948   -1.9680   -0.1174 H         1 <0>         0.0641
     45 H9         -1.6313   -0.7944    1.0000 H         1 <0>         0.0750
     46 H10         0.2987   -0.7480   -2.0419 H         1 <0>         0.4168
     47 H11         2.3917    2.3800    3.7511 H         1 <0>         0.0685
     48 H12         2.0794    4.1283    3.6323 H         1 <0>         0.0801
     49 H13         1.3086    3.0066    2.4853 H         1 <0>         0.0834
     50 H14         4.5745    4.2457    3.6073 H         1 <0>         0.1329
     51 H15         5.3907    3.8347    2.0798 H         1 <0>         0.1132
     52 H16         5.9309    6.3971    2.7160 H         1 <0>         0.4044
     53 H17         4.7611    7.9190    0.6443 H         1 <0>         0.0691
     54 H18         3.9450    8.3300    2.1718 H         1 <0>         0.0821
     55 H19         6.1360    8.8797    3.1946 H         1 <0>         0.0973
     56 H20         6.9521    8.4686    1.6671 H         1 <0>         0.0561
     57 H21         6.7703    9.9498   -0.2264 H         1 <0>         0.0643
     58 H22         5.0360    9.5475   -0.2400 H         1 <0>         0.1268
     59 H23         5.4781   11.6847   -1.4296 H         1 <0>         0.1376
     60 H24         4.4711   11.9434    0.0151 H         1 <0>         0.1390
     61 H25         7.1598   13.2784    2.0480 H         1 <0>         0.1375
     62 H26         5.4318   12.8539    2.0019 H         1 <0>         0.1386
     63 H27         6.7202   11.1436    3.2427 H         1 <0>         0.1254
     64 H28         7.7601   10.8879    1.8204 H         1 <0>         0.0631
     65 H29         5.1670   14.2453    0.0572 H         1 <0>         0.1236
     66 H30         6.9003   14.6477    0.1052 H         1 <0>         0.1249
     67 H31         6.1850   13.9689   -1.3766 H         1 <0>         0.1249
     68 H32         1.4159   -2.1821   -2.6792 H         1 <0>         0.1286
     69 H33         0.8593   -3.6102   -4.6025 H         1 <0>         0.1341
     70 H34         2.7844   -0.8419   -7.2293 H         1 <0>         0.1305
     71 H35         3.3370    0.6000   -5.3151 H         1 <0>         0.1293
     72 H36         1.4538   -1.6907   -8.5994 H         1 <0>         0.0559
     73 H37         2.9910   -2.5641   -8.3940 H         1 <0>         0.0565
     74 H38         1.5958   -3.3812   -9.1384 H         1 <0>         0.1013
     75 H39         7.3783   12.3235   -0.1306 H         1 <0>         0.4227
@<TRIPOS>BOND
     1    1    2 1
     2    1   37 1
     3    1   38 1
     4    1   39 1
     5    2    3 1
     6    2    4 1
     7    2    5 1
     8    3   40 1
     9    3   41 1
    10    3   42 1
    11    4   43 1
    12    4   44 1
    13    4   45 1
    14    5    6 1
    15    5   46 1
    16    6   10 1
    17    6    7 2
    18    7    8 1
    19    7   29 1
    20    8    9 2
    21    9   13 1
    22    9   10 1
    23   10   11 1
    24   11   12 2
    25   12   13 1
    26   12   14 1
    27   14   15 1
    28   14   16 1
    29   15   47 1
    30   15   48 1
    31   15   49 1
    32   16   17 1
    33   16   50 1
    34   16   51 1
    35   17   18 2
    36   17   19 am
    37   19   20 1
    38   19   52 1
    39   20   21 1
    40   20   53 1
    41   20   54 1
    42   21   22 1
    43   21   55 1
    44   21   56 1
    45   22   27 1
    46   22   23 1
    47   23   24 1
    48   23   57 1
    49   23   58 1
    50   24   25 1
    51   24   59 1
    52   24   60 1
    53   25   26 1
    54   25   28 1
    55   25   75 1
    56   26   27 1
    57   26   61 1
    58   26   62 1
    59   27   63 1
    60   27   64 1
    61   28   65 1
    62   28   66 1
    63   28   67 1
    64   29   34 ar
    65   29   30 ar
    66   30   31 ar
    67   30   68 1
    68   31   32 ar
    69   31   69 1
    70   32   33 ar
    71   32   35 1
    72   33   34 ar
    73   33   70 1
    74   34   71 1
    75   35   36 1
    76   36   72 1
    77   36   73 1
    78   36   74 1
@<TRIPOS>MOLECULE
ZINC12279125
   73    76     0     0     0
SMALL
USER_CHARGES
N-[4-[[4-[(4S)-4-ethyl-1-[2-(4-methoxyphenyl)ethyl]-2,5-dioxo-imidazolidin-4-yl]-1-piperidyl]methyl]phenyl]acetamide
@<TRIPOS>ATOM
      1 C1          1.2610    1.1578    2.2418 C.3       1 <0>        -0.1630
      2 C2          2.2896    1.1354    1.1093 C.3       1 <0>        -0.1214
      3 C3          1.5656    1.0475   -0.2356 C.3       1 <0>         0.1279
      4 C4          0.6481    2.2385   -0.4299 C.2       1 <0>         0.5307
      5 O1          0.9662    3.4072   -0.4807 O.2       1 <0>        -0.4617
      6 N1         -0.5946    1.7277   -0.5348 N.am      1 <0>        -0.5730
      7 C5         -0.5899    0.3936   -0.4349 C.2       1 <0>         0.6990
      8 O2         -1.5913   -0.2923   -0.4990 O.2       1 <0>        -0.5210
      9 N2          0.6470   -0.1040   -0.2555 N.am      1 <0>        -0.7202
     10 C6         -1.8010    2.5334   -0.7393 C.3       1 <0>         0.1206
     11 C7         -2.3917    2.9208    0.6179 C.3       1 <0>        -0.0874
     12 C8         -3.6326    3.7496    0.4075 C.ar      1 <0>        -0.1304
     13 C9         -3.5367    5.1263    0.3217 C.ar      1 <0>        -0.0713
     14 C10        -4.6721    5.8879    0.1232 C.ar      1 <0>        -0.2075
     15 C11        -5.9105    5.2711    0.0213 C.ar      1 <0>         0.1330
     16 C12        -6.0047    3.8900    0.1134 C.ar      1 <0>        -0.1488
     17 C13        -4.8657    3.1325    0.3062 C.ar      1 <0>        -0.0694
     18 O3         -7.0295    6.0185   -0.1689 O.3       1 <0>        -0.3156
     19 C14        -6.8572    7.4345   -0.2542 C.3       1 <0>         0.0259
     20 C15         2.5736    0.9519   -1.3826 C.3       1 <0>        -0.0918
     21 C16         3.5759    2.1050   -1.2805 C.3       1 <0>        -0.1528
     22 C17         4.5440    2.0392   -2.4639 C.3       1 <0>        -0.0037
     23 C18         2.8545    1.0093   -3.8629 C.3       1 <0>         0.0041
     24 C19         1.8359    1.0442   -2.7212 C.3       1 <0>        -0.1538
     25 C20         4.6964    2.2118   -4.8738 C.3       1 <0>         0.0523
     26 C21         5.4696    3.5040   -4.8168 C.ar      1 <0>        -0.1855
     27 C22         4.9681    4.6358   -5.4329 C.ar      1 <0>        -0.0680
     28 C23         5.6720    5.8229   -5.3784 C.ar      1 <0>        -0.1458
     29 C24         6.8899    5.8763   -4.7134 C.ar      1 <0>         0.1899
     30 C25         7.3934    4.7365   -4.1002 C.ar      1 <0>        -0.1230
     31 C26         6.6819    3.5540   -4.1534 C.ar      1 <0>        -0.0715
     32 N3          7.6081    7.0760   -4.6609 N.am      1 <0>        -0.6810
     33 C27         8.9557    7.0552   -4.6587 C.2       1 <0>         0.5151
     34 O4          9.5462    6.0050   -4.7985 O.2       1 <0>        -0.5169
     35 C28         9.7288    8.3367   -4.4825 C.3       1 <0>        -0.1751
     36 H1          0.6647    0.2460    2.2091 H         1 <0>         0.0641
     37 H2          1.7769    1.2204    3.1999 H         1 <0>         0.0745
     38 H3          0.6088    2.0230    2.1231 H         1 <0>         0.0531
     39 H4          2.9419    0.2702    1.2280 H         1 <0>         0.0918
     40 H5          2.8860    2.0472    1.1420 H         1 <0>         0.0924
     41 H6          0.8872   -1.0387   -0.1578 H         1 <0>         0.4434
     42 H7         -1.5454    3.4356   -1.2952 H         1 <0>         0.0975
     43 H8         -2.5332    1.9548   -1.3025 H         1 <0>         0.1029
     44 H9         -2.6472    2.0187    1.1737 H         1 <0>         0.0811
     45 H10        -1.6594    3.4994    1.1810 H         1 <0>         0.0758
     46 H11        -2.5729    5.6063    0.4055 H         1 <0>         0.1241
     47 H12        -4.5961    6.9628    0.0518 H         1 <0>         0.1301
     48 H13        -6.9677    3.4075    0.0340 H         1 <0>         0.1343
     49 H14        -4.9385    2.0573    0.3776 H         1 <0>         0.1316
     50 H15        -7.8262    7.9099   -0.4060 H         1 <0>         0.1038
     51 H16        -6.4126    7.8027    0.6704 H         1 <0>         0.0572
     52 H17        -6.2012    7.6708   -1.0921 H         1 <0>         0.0562
     53 H18         3.1035    0.0012   -1.3235 H         1 <0>         0.1132
     54 H19         3.0412    3.0546   -1.3000 H         1 <0>         0.1050
     55 H20         4.1344    2.0202   -0.3483 H         1 <0>         0.1210
     56 H21         5.0882    1.0952   -2.4360 H         1 <0>         0.1325
     57 H22         5.2501    2.8673   -2.4019 H         1 <0>         0.1337
     58 H23         3.4066    0.0701   -3.8284 H         1 <0>         0.1352
     59 H24         2.3335    1.0895   -4.8170 H         1 <0>         0.1323
     60 H25         1.1514    0.2016   -2.8184 H         1 <0>         0.1163
     61 H26         1.2739    1.9772   -2.7634 H         1 <0>         0.0857
     62 H27         5.3904    1.3716   -4.8490 H         1 <0>         0.1372
     63 H28         4.1157    2.1761   -5.7955 H         1 <0>         0.1347
     64 H29         4.0231    4.5925   -5.9541 H         1 <0>         0.1351
     65 H30         5.2778    6.7076   -5.8563 H         1 <0>         0.1389
     66 H31         8.3405    4.7747   -3.5826 H         1 <0>         0.1458
     67 H32         7.0729    2.6672   -3.6768 H         1 <0>         0.1347
     68 H33         7.1361    7.9227   -4.6261 H         1 <0>         0.4191
     69 H34         9.9114    8.5080   -3.4217 H         1 <0>         0.1044
     70 H35        10.6810    8.2617   -5.0076 H         1 <0>         0.1037
     71 H36         9.1532    9.1674   -4.8909 H         1 <0>         0.0871
     72 N4          3.7743    2.1579   -3.7207 N.4       1 <0>        -0.3947
     73 H37         3.2236    3.0240   -3.6934 H         1 <0>         0.4265
@<TRIPOS>BOND
     1    1    2 1
     2    1   36 1
     3    1   37 1
     4    1   38 1
     5    2    3 1
     6    2   39 1
     7    2   40 1
     8    3    9 1
     9    3    4 1
    10    3   20 1
    11    4    5 2
    12    4    6 am
    13    6    7 am
    14    6   10 1
    15    7    8 2
    16    7    9 am
    17    9   41 1
    18   10   11 1
    19   10   42 1
    20   10   43 1
    21   11   12 1
    22   11   44 1
    23   11   45 1
    24   12   17 ar
    25   12   13 ar
    26   13   14 ar
    27   13   46 1
    28   14   15 ar
    29   14   47 1
    30   15   16 ar
    31   15   18 1
    32   16   17 ar
    33   16   48 1
    34   17   49 1
    35   18   19 1
    36   19   50 1
    37   19   51 1
    38   19   52 1
    39   20   24 1
    40   20   21 1
    41   20   53 1
    42   21   22 1
    43   21   54 1
    44   21   55 1
    45   22   56 1
    46   22   57 1
    47   22   72 1
    48   23   24 1
    49   23   58 1
    50   23   59 1
    51   23   72 1
    52   24   60 1
    53   24   61 1
    54   25   26 1
    55   25   62 1
    56   25   63 1
    57   25   72 1
    58   26   31 ar
    59   26   27 ar
    60   27   28 ar
    61   27   64 1
    62   28   29 ar
    63   28   65 1
    64   29   30 ar
    65   29   32 1
    66   30   31 ar
    67   30   66 1
    68   31   67 1
    69   32   33 am
    70   32   68 1
    71   33   34 2
    72   33   35 1
    73   35   69 1
    74   35   70 1
    75   35   71 1
    76   72   73 1
@<TRIPOS>MOLECULE
ZINC16624323
   63    65     0     0     0
SMALL
USER_CHARGES
N-(2,6-dimethylphenyl)-2-[[2-[2-[(5Z)-5-[(2-fluorophenyl)methylene]-2,4-dioxo-thiazolidin-3-yl]ethylamino]-2-oxo-ethyl]-methyl-amino]acetamide
@<TRIPOS>ATOM
      1 C1         -7.5360   -2.6704   -6.7873 C.3       1 <0>        -0.1094
      2 C2         -8.8853   -3.3146   -6.9759 C.ar      1 <0>        -0.0668
      3 C3         -9.4547   -3.3711   -8.2329 C.ar      1 <0>        -0.1125
      4 C4        -10.6951   -3.9574   -8.4059 C.ar      1 <0>        -0.0994
      5 C5        -11.3671   -4.4931   -7.3226 C.ar      1 <0>        -0.1115
      6 C6        -10.8007   -4.4445   -6.0639 C.ar      1 <0>        -0.0816
      7 C7         -9.5550   -3.8568   -5.8868 C.ar      1 <0>         0.1100
      8 N1         -8.9784   -3.8060   -4.6129 N.am      1 <0>        -0.6437
      9 C8         -7.7214   -4.2539   -4.4238 C.2       1 <0>         0.4954
     10 O1         -7.1229   -4.7842   -5.3358 O.2       1 <0>        -0.5013
     11 C9         -7.0595   -4.0959   -3.0792 C.3       1 <0>        -0.0263
     12 C10        -5.7465   -6.1146   -3.3312 C.3       1 <0>        -0.0596
     13 C11        -4.9441   -4.3165   -1.9220 C.3       1 <0>        -0.0257
     14 C12        -3.4979   -4.6945   -2.1133 C.2       1 <0>         0.5024
     15 O2         -3.1359   -5.2001   -3.1546 O.2       1 <0>        -0.5171
     16 N2         -2.6067   -4.4707   -1.1273 N.am      1 <0>        -0.6990
     17 C13        -1.2008   -4.8381   -1.3133 C.3       1 <0>         0.1023
     18 C14        -0.4093   -4.4805   -0.0537 C.3       1 <0>         0.0803
     19 N3          0.9966   -4.8479   -0.2397 N.am      1 <0>        -0.5761
     20 C15         1.8331   -3.9627   -0.7550 C.2       1 <0>         0.5620
     21 O3          1.4644   -2.8506   -1.0839 O.2       1 <0>        -0.4651
     22 C16         3.2365   -4.3947   -0.9167 C.2       1 <0>        -0.2241
     23 C17         4.3000   -3.7124   -1.4102 C.2       1 <0>         0.0915
     24 C18         5.6427   -4.3063   -1.3571 C.ar      1 <0>        -0.1378
     25 C19         5.9082   -5.3697   -0.4866 C.ar      1 <0>        -0.0620
     26 C20         7.1690   -5.9244   -0.4464 C.ar      1 <0>        -0.1261
     27 C21         8.1761   -5.4271   -1.2564 C.ar      1 <0>        -0.0566
     28 C22         7.9263   -4.3733   -2.1165 C.ar      1 <0>        -0.1550
     29 C23         6.6668   -3.8077   -2.1738 C.ar      1 <0>         0.1419
     30 F1          6.4236   -2.7777   -3.0135 F         1 <0>        -0.1255
     31 S1          3.1477   -6.0645   -0.2846 S.3       1 <0>        -0.0215
     32 C24         1.4082   -6.0813    0.1181 C.2       1 <0>         0.5316
     33 O4          0.7528   -6.9865    0.5983 O.2       1 <0>        -0.4135
     34 C25       -11.5336   -5.0290   -4.8839 C.3       1 <0>        -0.1183
     35 H1         -6.7539   -3.3775   -7.0640 H         1 <0>         0.0839
     36 H2         -7.4649   -1.7846   -7.4185 H         1 <0>         0.0717
     37 H3         -7.4133   -2.3832   -5.7430 H         1 <0>         0.0469
     38 H4         -8.9326   -2.9533   -9.0809 H         1 <0>         0.1314
     39 H5        -11.1401   -3.9966   -9.3892 H         1 <0>         0.1323
     40 H6        -12.3357   -4.9503   -7.4610 H         1 <0>         0.1330
     41 H7         -9.4834   -3.4484   -3.8659 H         1 <0>         0.4169
     42 H8         -7.6428   -4.6213   -2.3231 H         1 <0>         0.1661
     43 H9         -7.0031   -3.0376   -2.8241 H         1 <0>         0.1625
     44 H10        -6.2249   -6.5855   -2.4724 H         1 <0>         0.1203
     45 H11        -6.3151   -6.3410   -4.2332 H         1 <0>         0.1386
     46 H12        -4.7311   -6.4967   -3.4363 H         1 <0>         0.1387
     47 H13        -5.3521   -4.8603   -1.0699 H         1 <0>         0.1664
     48 H14        -5.0183   -3.2447   -1.7383 H         1 <0>         0.1625
     49 H15        -2.8963   -4.0663   -0.2945 H         1 <0>         0.4136
     50 H16        -0.7928   -4.2944   -2.1654 H         1 <0>         0.0892
     51 H17        -1.1266   -5.9099   -1.4970 H         1 <0>         0.0873
     52 H18        -0.8173   -5.0242    0.7984 H         1 <0>         0.1095
     53 H19        -0.4835   -3.4087    0.1300 H         1 <0>         0.1129
     54 H20         4.1597   -2.7324   -1.8420 H         1 <0>         0.1675
     55 H21         5.1258   -5.7569    0.1493 H         1 <0>         0.1438
     56 H22         7.3735   -6.7474    0.2224 H         1 <0>         0.1424
     57 H23         9.1627   -5.8646   -1.2160 H         1 <0>         0.1445
     58 H24         8.7175   -3.9912   -2.7445 H         1 <0>         0.1478
     59 H25       -12.1623   -4.2625   -4.4307 H         1 <0>         0.0770
     60 H26       -12.1562   -5.8590   -5.2177 H         1 <0>         0.0770
     61 H27       -10.8123   -5.3881   -4.1498 H         1 <0>         0.0604
     62 N4         -5.6906   -4.6483   -3.1539 N.4       1 <0>        -0.3698
     63 H28        -5.2069   -4.2332   -3.9589 H         1 <0>         0.4438
@<TRIPOS>BOND
     1    1    2 1
     2    1   35 1
     3    1   36 1
     4    1   37 1
     5    2    7 ar
     6    2    3 ar
     7    3    4 ar
     8    3   38 1
     9    4    5 ar
    10    4   39 1
    11    5    6 ar
    12    5   40 1
    13    6    7 ar
    14    6   34 1
    15    7    8 1
    16    8    9 am
    17    8   41 1
    18    9   10 2
    19    9   11 1
    20   11   42 1
    21   11   43 1
    22   11   62 1
    23   12   44 1
    24   12   45 1
    25   12   46 1
    26   12   62 1
    27   13   14 1
    28   13   47 1
    29   13   48 1
    30   13   62 1
    31   14   15 2
    32   14   16 am
    33   16   17 1
    34   16   49 1
    35   17   18 1
    36   17   50 1
    37   17   51 1
    38   18   19 1
    39   18   52 1
    40   18   53 1
    41   19   32 am
    42   19   20 am
    43   20   21 2
    44   20   22 1
    45   22   23 2
    46   22   31 1
    47   23   24 1
    48   23   54 1
    49   24   29 ar
    50   24   25 ar
    51   25   26 ar
    52   25   55 1
    53   26   27 ar
    54   26   56 1
    55   27   28 ar
    56   27   57 1
    57   28   29 ar
    58   28   58 1
    59   29   30 1
    60   31   32 1
    61   32   33 2
    62   34   59 1
    63   34   60 1
    64   34   61 1
    65   62   63 1
@<TRIPOS>MOLECULE
ZINC34730026
   72    75     0     0     0
SMALL
USER_CHARGES

@<TRIPOS>ATOM
      1 C1         -0.6449    1.4203   -0.1800 C.3       1 <0>        -0.1131
      2 C2         -0.2941   -0.0424   -0.0875 C.ar      1 <0>         0.1601
      3 C3          0.0819   -0.7256   -1.2302 C.ar      1 <0>        -0.1686
      4 C4          0.4032   -2.0684   -1.1415 C.ar      1 <0>        -0.0361
      5 C5          0.3338   -2.6859    0.1133 C.ar      1 <0>        -0.1862
      6 C6         -0.0545   -1.9265    1.2174 C.ar      1 <0>         0.1808
      7 N1         -0.3455   -0.6492    1.0829 N.ar      1 <0>        -0.4827
      8 C7         -0.1356   -2.5720    2.5768 C.3       1 <0>        -0.0561
      9 C8         -1.4841   -2.2394    3.2219 C.3       1 <0>        -0.1370
     10 C9         -1.5282   -2.8308    4.6325 C.3       1 <0>        -0.0036
     11 N2         -0.4436   -2.2601    5.4403 N.4       1 <0>        -0.3809
     12 C10         0.8546   -2.6355    4.8675 C.3       1 <0>        -0.0050
     13 C11         0.9904   -2.0366    3.4660 C.3       1 <0>        -0.1270
     14 C12        -0.5372   -2.7714    6.8143 C.3       1 <0>         0.0571
     15 C13         0.4985   -2.0938    7.6741 C.ar      1 <0>        -0.2279
     16 C14         1.6850   -2.7401    7.9643 C.ar      1 <0>        -0.0328
     17 C15         2.6365   -2.1216    8.7522 C.ar      1 <0>        -0.2158
     18 C16         2.4027   -0.8490    9.2543 C.ar      1 <0>         0.1825
     19 C17         1.2134   -0.1986    8.9646 C.ar      1 <0>        -0.1787
     20 C18         0.2625   -0.8192    8.1689 C.ar      1 <0>         0.1729
     21 O1         -0.9020   -0.1817    7.8782 O.3       1 <0>        -0.4998
     22 O2          3.3388   -0.2412   10.0296 O.3       1 <0>        -0.3054
     23 C19         4.5403   -0.9705   10.2876 C.3       1 <0>         0.0206
     24 C20         0.6658   -4.1185    0.2655 C.2       1 <0>         0.5663
     25 O3          1.2755   -4.5003    1.2453 O.2       1 <0>        -0.5332
     26 N3          0.2924   -5.0011   -0.6821 N.am      1 <0>        -0.7180
     27 C21         0.6214   -6.4207   -0.5313 C.3       1 <0>         0.1263
     28 C22         0.0875   -7.1987   -1.7357 C.3       1 <0>        -0.0816
     29 C23         0.4260   -8.6590   -1.5805 C.ar      1 <0>        -0.1207
     30 C24         1.5676   -9.1703   -2.1672 C.ar      1 <0>        -0.0750
     31 C25         1.8784  -10.5099   -2.0257 C.ar      1 <0>        -0.1527
     32 C26         1.0481  -11.3414   -1.2965 C.ar      1 <0>        -0.0765
     33 C27        -0.0941  -10.8351   -0.7077 C.ar      1 <0>        -0.2060
     34 C28        -0.4055   -9.4898   -0.8439 C.ar      1 <0>         0.1315
     35 O4         -1.5258   -8.9880   -0.2608 O.3       1 <0>        -0.3166
     36 C29        -2.3350   -9.9015    0.4826 C.3       1 <0>         0.0258
     37 H1          0.2534    2.0194   -0.0314 H         1 <0>         0.0867
     38 H2         -1.0641    1.6318   -1.1637 H         1 <0>         0.0835
     39 H3         -1.3777    1.6675    0.5881 H         1 <0>         0.0818
     40 H4          0.1238   -0.2162   -2.1816 H         1 <0>         0.1481
     41 H5          0.6997   -2.6261   -2.0176 H         1 <0>         0.1450
     42 H6         -0.0362   -3.6525    2.4737 H         1 <0>         0.1214
     43 H7         -1.6044   -1.1575    3.2769 H         1 <0>         0.1001
     44 H8         -2.2890   -2.6658    2.6232 H         1 <0>         0.1075
     45 H9         -2.4870   -2.5961    5.0947 H         1 <0>         0.1318
     46 H10        -1.4081   -3.9127    4.5764 H         1 <0>         0.1279
     47 H11         1.6549   -2.2565    5.5032 H         1 <0>         0.1290
     48 H12         0.9239   -3.7215    4.8064 H         1 <0>         0.1299
     49 H13         1.9542   -2.3179    3.0417 H         1 <0>         0.1129
     50 H14         0.9215   -0.9504    3.5260 H         1 <0>         0.0909
     51 H15        -1.5309   -2.5650    7.2119 H         1 <0>         0.1328
     52 H16        -0.3621   -3.8472    6.8144 H         1 <0>         0.1333
     53 H17         1.8687   -3.7306    7.5748 H         1 <0>         0.1405
     54 H18         3.5628   -2.6289    8.9779 H         1 <0>         0.1441
     55 H19         1.0296    0.7918    9.3544 H         1 <0>         0.1495
     56 H20        -1.6102   -0.3461    8.5158 H         1 <0>         0.4074
     57 H21         4.2973   -1.9023   10.7982 H         1 <0>         0.0640
     58 H22         5.0402   -1.1924    9.3448 H         1 <0>         0.0633
     59 H23         5.2001   -0.3729   10.9168 H         1 <0>         0.1121
     60 H24        -0.1941   -4.6964   -1.4640 H         1 <0>         0.4038
     61 H25         1.7035   -6.5387   -0.4732 H         1 <0>         0.0729
     62 H26         0.1645   -6.8046    0.3808 H         1 <0>         0.0741
     63 H27        -0.9945   -7.0807   -1.7938 H         1 <0>         0.0836
     64 H28         0.5444   -6.8148   -2.6478 H         1 <0>         0.0797
     65 H29         2.2176   -8.5229   -2.7371 H         1 <0>         0.1302
     66 H30         2.7709  -10.9078   -2.4856 H         1 <0>         0.1274
     67 H31         1.2929  -12.3877   -1.1877 H         1 <0>         0.1276
     68 H32        -0.7422  -11.4849   -0.1384 H         1 <0>         0.1296
     69 H33        -2.6794  -10.6998   -0.1748 H         1 <0>         0.0581
     70 H34        -1.7477  -10.3284    1.2957 H         1 <0>         0.0561
     71 H35        -3.1950   -9.3732    0.8941 H         1 <0>         0.1002
     72 H36        -0.5271   -1.2546    5.4514 H         1 <0>         0.4261
@<TRIPOS>BOND
     1    1    2 1
     2    1   37 1
     3    1   38 1
     4    1   39 1
     5    2    7 ar
     6    2    3 ar
     7    3    4 ar
     8    3   40 1
     9    4    5 ar
    10    4   41 1
    11    5    6 ar
    12    5   24 1
    13    6    7 ar
    14    6    8 1
    15    8   13 1
    16    8    9 1
    17    8   42 1
    18    9   10 1
    19    9   43 1
    20    9   44 1
    21   10   11 1
    22   10   45 1
    23   10   46 1
    24   11   12 1
    25   11   14 1
    26   11   72 1
    27   12   13 1
    28   12   47 1
    29   12   48 1
    30   13   49 1
    31   13   50 1
    32   14   15 1
    33   14   51 1
    34   14   52 1
    35   15   20 ar
    36   15   16 ar
    37   16   17 ar
    38   16   53 1
    39   17   18 ar
    40   17   54 1
    41   18   19 ar
    42   18   22 1
    43   19   20 ar
    44   19   55 1
    45   20   21 1
    46   21   56 1
    47   22   23 1
    48   23   57 1
    49   23   58 1
    50   23   59 1
    51   24   25 2
    52   24   26 am
    53   26   27 1
    54   26   60 1
    55   27   28 1
    56   27   61 1
    57   27   62 1
    58   28   29 1
    59   28   63 1
    60   28   64 1
    61   29   34 ar
    62   29   30 ar
    63   30   31 ar
    64   30   65 1
    65   31   32 ar
    66   31   66 1
    67   32   33 ar
    68   32   67 1
    69   33   34 ar
    70   33   68 1
    71   34   35 1
    72   35   36 1
    73   36   69 1
    74   36   70 1
    75   36   71 1
@<TRIPOS>MOLECULE
ZINC39668525
   65    68     0     0     0
SMALL
USER_CHARGES

@<TRIPOS>ATOM
      1 C1         -2.8064    1.7916    2.7444 C.3       1 <0>        -0.1768
      2 C2         -2.7478    0.2629    2.7659 C.3       1 <0>         0.0668
      3 H1         -1.8646   -0.0591    3.3175 H         1 <0>         0.0855
      4 C3         -2.6739   -0.2649    1.3317 C.3       1 <0>         0.1209
      5 N1         -2.6178   -1.7286    1.3523 N.am      1 <0>        -0.7248
      6 C4         -2.5480   -2.4167    0.1955 C.2       1 <0>         0.5215
      7 O1         -2.5317   -1.8240   -0.8626 O.2       1 <0>        -0.5185
      8 C5         -2.4903   -3.9224    0.2166 C.3       1 <0>        -0.1136
      9 H2         -2.0415   -4.2712    1.1467 H         1 <0>         0.1122
     10 C6         -1.6903   -4.4472   -0.9967 C.3       1 <0>         0.1170
     11 N2         -2.4020   -5.6797   -1.4096 N.am      1 <0>        -0.6166
     12 C7         -3.8379   -5.3475   -1.2491 C.3       1 <0>         0.0907
     13 C8         -3.8994   -4.5148    0.0468 C.3       1 <0>        -0.0713
     14 C9         -4.9289   -3.3976   -0.0930 C.3       1 <0>        -0.1493
     15 C10        -6.3283   -4.0098   -0.2017 C.3       1 <0>        -0.0076
     16 N3         -6.6074   -4.8130    0.9948 N.4       1 <0>        -0.5055
     17 C11        -5.6701   -5.9401    1.0711 C.3       1 <0>        -0.0114
     18 C12        -4.2429   -5.4095    1.2338 C.3       1 <0>        -0.1365
     19 C13        -1.8651   -6.8406   -1.8346 C.2       1 <0>         0.5816
     20 O2         -0.6602   -6.9986   -1.8082 O.2       1 <0>        -0.4991
     21 C14        -2.7418   -7.9219   -2.3328 C.ar      1 <0>        -0.0710
     22 C15        -4.0020   -7.6193   -2.8515 C.ar      1 <0>        -0.1200
     23 C16        -4.8159   -8.6318   -3.3155 C.ar      1 <0>        -0.0484
     24 C17        -4.3865   -9.9461   -3.2681 C.ar      1 <0>        -0.1965
     25 C18        -3.1373  -10.2545   -2.7544 C.ar      1 <0>         0.1589
     26 C19        -2.3105   -9.2482   -2.2917 C.ar      1 <0>        -0.0968
     27 F1         -2.7247  -11.5402   -2.7103 F         1 <0>        -0.1093
     28 C20        -5.2813  -11.0467   -3.7769 C.3       1 <0>         0.5105
     29 F2         -6.4801  -10.4955   -4.2422 F         1 <0>        -0.1704
     30 F3         -4.6419  -11.7219   -4.8221 F         1 <0>        -0.1645
     31 F4         -5.5528  -11.9444   -2.7388 F         1 <0>        -0.1678
     32 O3         -3.9200   -0.2499    3.4023 O.3       1 <0>        -0.3050
     33 C21        -3.8309   -0.5250    4.7303 C.ar      1 <0>         0.0727
     34 C22        -2.6806   -0.2002    5.4425 C.ar      1 <0>        -0.1663
     35 C23        -2.6364   -0.5003    6.7943 C.ar      1 <0>        -0.1237
     36 C24        -3.7279   -1.1078    7.3868 C.ar      1 <0>         0.0660
     37 N4         -4.8032   -1.4025    6.6830 N.ar      1 <0>        -0.4458
     38 C25        -4.8875   -1.1285    5.3962 C.ar      1 <0>         0.0696
     39 H3         -2.8591    2.1676    3.7662 H         1 <0>         0.0710
     40 H4         -1.9123    2.1827    2.2589 H         1 <0>         0.0822
     41 H5         -3.6897    2.1136    2.1928 H         1 <0>         0.0754
     42 H6         -3.5572    0.0571    0.7801 H         1 <0>         0.0858
     43 H7         -1.7798    0.1262    0.8462 H         1 <0>         0.0961
     44 H8         -2.6309   -2.2027    2.1985 H         1 <0>         0.4022
     45 H9         -1.6996   -3.7146   -1.8037 H         1 <0>         0.1030
     46 H10        -0.6661   -4.6795   -0.7048 H         1 <0>         0.1004
     47 H11        -4.1896   -4.7599   -2.0971 H         1 <0>         0.0948
     48 H12        -4.4294   -6.2571   -1.1441 H         1 <0>         0.0938
     49 H13        -4.8827   -2.7487    0.7816 H         1 <0>         0.1005
     50 H14        -4.7155   -2.8162   -0.9899 H         1 <0>         0.1282
     51 H15        -7.0676   -3.2133   -0.2849 H         1 <0>         0.1411
     52 H16        -6.3788   -4.6456   -1.0857 H         1 <0>         0.1326
     53 H17        -6.5057   -4.2365    1.8166 H         1 <0>         0.4298
     54 H18        -5.9243   -6.5665    1.9262 H         1 <0>         0.1416
     55 H19        -5.7362   -6.5299    0.1569 H         1 <0>         0.1318
     56 H20        -3.5457   -6.2465    1.2724 H         1 <0>         0.1188
     57 H21        -4.1719   -4.8333    2.1563 H         1 <0>         0.0990
     58 H22        -4.3394   -6.5941   -2.8891 H         1 <0>         0.1501
     59 H23        -5.7910   -8.3979   -3.7165 H         1 <0>         0.1586
     60 H24        -1.3349   -9.4883   -1.8954 H         1 <0>         0.1645
     61 H25        -1.8425    0.2740    4.9535 H         1 <0>         0.1424
     62 H26        -1.7595   -0.2628    7.3783 H         1 <0>         0.1428
     63 H27        -3.6991   -1.3445    8.4401 H         1 <0>         0.1631
     64 H28        -5.7868   -1.3804    4.8539 H         1 <0>         0.1576
     65 H29        -7.5519   -5.1652    0.9490 H         1 <0>         0.4352
@<TRIPOS>BOND
     1    1    2 1
     2    1   39 1
     3    1   40 1
     4    1   41 1
     5    2    3 1
     6    2    4 1
     7    2   32 1
     8    4    5 1
     9    4   42 1
    10    4   43 1
    11    5    6 am
    12    5   44 1
    13    6    7 2
    14    6    8 1
    15    8    9 1
    16    8   13 1
    17    8   10 1
    18   10   11 1
    19   10   45 1
    20   10   46 1
    21   11   12 1
    22   11   19 am
    23   12   13 1
    24   12   47 1
    25   12   48 1
    26   13   18 1
    27   13   14 1
    28   14   15 1
    29   14   49 1
    30   14   50 1
    31   15   16 1
    32   15   51 1
    33   15   52 1
    34   16   17 1
    35   16   53 1
    36   16   65 1
    37   17   18 1
    38   17   54 1
    39   17   55 1
    40   18   56 1
    41   18   57 1
    42   19   20 2
    43   19   21 1
    44   21   26 ar
    45   21   22 ar
    46   22   23 ar
    47   22   58 1
    48   23   24 ar
    49   23   59 1
    50   24   25 ar
    51   24   28 1
    52   25   26 ar
    53   25   27 1
    54   26   60 1
    55   28   29 1
    56   28   30 1
    57   28   31 1
    58   32   33 1
    59   33   38 ar
    60   33   34 ar
    61   34   35 ar
    62   34   61 1
    63   35   36 ar
    64   35   62 1
    65   36   37 ar
    66   36   63 1
    67   37   38 ar
    68   38   64 1
@<TRIPOS>MOLECULE
ZINC64020407
   69    72     0     0     0
SMALL
USER_CHARGES

@<TRIPOS>ATOM
      1 C1         -0.0173    1.4248    0.0099 C.3       1 <0>         0.0205
      2 O1          0.0021   -0.0041    0.0020 O.3       1 <0>        -0.3010
      3 C2          0.6262   -0.6188    1.0422 C.ar      1 <0>         0.1280
      4 C3          1.2021    0.1367    2.0510 C.ar      1 <0>        -0.1849
      5 C4          1.8358   -0.4897    3.1079 C.ar      1 <0>        -0.0676
      6 C5          1.8971   -1.8699    3.1612 C.ar      1 <0>        -0.1515
      7 C6          1.3251   -2.6295    2.1578 C.ar      1 <0>        -0.0849
      8 C7          0.6830   -2.0080    1.0988 C.ar      1 <0>         0.0758
      9 O2          0.1145   -2.7540    0.1140 O.3       1 <0>        -0.3205
     10 C8          0.9397   -3.0914   -1.0027 C.3       1 <0>         0.0294
     11 C9          1.3944   -4.1337    2.2190 C.3       1 <0>        -0.0208
     12 H1          0.8927   -4.5562    1.3484 H         1 <0>         0.1324
     13 C10         0.7044   -4.6246    3.4933 C.3       1 <0>         0.1317
     14 N1         -0.7238   -4.3047    3.4296 N.am      1 <0>        -0.7300
     15 C11        -1.5367   -4.6449    4.4494 C.2       1 <0>         0.5252
     16 O3         -1.0859   -5.2159    5.4198 O.2       1 <0>        -0.5255
     17 C12        -3.0059   -4.3158    4.3839 C.3       1 <0>        -0.1543
     18 C13        -3.6958   -4.8067    5.6582 C.3       1 <0>         0.1347
     19 N2         -5.1240   -4.4868    5.5945 N.am      1 <0>        -0.7321
     20 C14        -5.9369   -4.8270    6.6142 C.2       1 <0>         0.5500
     21 O4         -5.4845   -5.3999    7.5879 O.2       1 <0>        -0.5385
     22 C15        -7.3645   -4.5073    6.5506 C.2       1 <0>        -0.2241
     23 C16        -8.1776   -4.8475    7.5706 C.2       1 <0>        -0.0061
     24 C17        -9.6127   -4.5261    7.5066 C.ar      1 <0>        -0.0844
     25 C18       -10.1373   -3.8729    6.3869 C.ar      1 <0>        -0.1001
     26 C19       -11.4827   -3.5752    6.3345 C.ar      1 <0>        -0.1232
     27 C20       -12.3132   -3.9211    7.3862 C.ar      1 <0>        -0.1044
     28 C21       -11.8014   -4.5677    8.4977 C.ar      1 <0>        -0.1219
     29 C22       -10.4593   -4.8774    8.5626 C.ar      1 <0>        -0.0920
     30 C23         2.8367   -4.5701    2.2287 C.2       1 <0>         0.0757
     31 C24         3.4546   -5.3563    1.3178 C.ar      1 <0>        -0.1619
     32 C25         2.9863   -6.0159    0.0930 C.ar      1 <0>        -0.0174
     33 C26         3.8588   -6.7564   -0.6279 C.ar      1 <0>        -0.1467
     34 C27         5.1956   -6.9097   -0.2353 C.ar      1 <0>         0.0544
     35 C28         5.6994   -6.3346    0.8771 C.ar      1 <0>        -0.2076
     36 C29         4.8709   -5.5333    1.7103 C.ar      1 <0>         0.3301
     37 N3          5.1191   -4.8821    2.8206 N.pl3     1 <0>        -0.5805
     38 C30         3.8881   -4.2124    3.2553 C.3       1 <0>         0.0528
     39 H2          1.0053    1.8021    0.0021 H         1 <0>         0.0599
     40 H3         -0.5445    1.7859   -0.8732 H         1 <0>         0.1100
     41 H4         -0.5275    1.7763    0.9067 H         1 <0>         0.0625
     42 H5          1.1562    1.2150    2.0113 H         1 <0>         0.1423
     43 H6          2.2842    0.1003    3.8935 H         1 <0>         0.1386
     44 H7          2.3934   -2.3556    3.9883 H         1 <0>         0.1286
     45 H8          1.7992   -3.6667   -0.6587 H         1 <0>         0.0374
     46 H9          0.3650   -3.6862   -1.7126 H         1 <0>         0.1035
     47 H10         1.2845   -2.1787   -1.4887 H         1 <0>         0.0548
     48 H11         0.8315   -5.7035    3.5827 H         1 <0>         0.0843
     49 H12         1.1485   -4.1335    4.3592 H         1 <0>         0.0817
     50 H13        -1.0844   -3.8480    2.6535 H         1 <0>         0.4097
     51 H14        -3.1329   -3.2369    4.2945 H         1 <0>         0.1049
     52 H15        -3.4500   -4.8069    3.5180 H         1 <0>         0.1059
     53 H16        -3.5688   -5.8856    5.7476 H         1 <0>         0.0778
     54 H17        -3.2517   -4.3156    6.5240 H         1 <0>         0.0774
     55 H18        -5.4846   -4.0302    4.8184 H         1 <0>         0.4015
     56 H19        -7.7659   -3.9988    5.6865 H         1 <0>         0.1303
     57 H20        -7.7761   -5.3560    8.4347 H         1 <0>         0.1370
     58 H21        -9.4904   -3.6021    5.5656 H         1 <0>         0.1265
     59 H22       -11.8893   -3.0705    5.4706 H         1 <0>         0.1269
     60 H23       -13.3660   -3.6849    7.3394 H         1 <0>         0.1264
     61 H24       -12.4558   -4.8340    9.3146 H         1 <0>         0.1284
     62 H25       -10.0623   -5.3860    9.4287 H         1 <0>         0.1293
     63 H26         1.9603   -5.9118   -0.2276 H         1 <0>         0.1601
     64 H27         3.5163   -7.2427   -1.5294 H         1 <0>         0.1594
     65 H28         5.8492   -7.5129   -0.8479 H         1 <0>         0.1623
     66 H29         6.7372   -6.4841    1.1361 H         1 <0>         0.1621
     67 H30         4.0347   -3.1327    3.2823 H         1 <0>         0.1770
     68 H31         3.5919   -4.5767    4.2390 H         1 <0>         0.1775
     69 H32         5.9745   -4.8457    3.2765 H         1 <0>         0.4571
@<TRIPOS>BOND
     1    1    2 1
     2    1   39 1
     3    1   40 1
     4    1   41 1
     5    2    3 1
     6    3    8 ar
     7    3    4 ar
     8    4    5 ar
     9    4   42 1
    10    5    6 ar
    11    5   43 1
    12    6    7 ar
    13    6   44 1
    14    7    8 ar
    15    7   11 1
    16    8    9 1
    17    9   10 1
    18   10   45 1
    19   10   46 1
    20   10   47 1
    21   11   12 1
    22   11   13 1
    23   11   30 1
    24   13   14 1
    25   13   48 1
    26   13   49 1
    27   14   15 am
    28   14   50 1
    29   15   16 2
    30   15   17 1
    31   17   18 1
    32   17   51 1
    33   17   52 1
    34   18   19 1
    35   18   53 1
    36   18   54 1
    37   19   20 am
    38   19   55 1
    39   20   21 2
    40   20   22 1
    41   22   23 2
    42   22   56 1
    43   23   24 1
    44   23   57 1
    45   24   29 ar
    46   24   25 ar
    47   25   26 ar
    48   25   58 1
    49   26   27 ar
    50   26   59 1
    51   27   28 ar
    52   27   60 1
    53   28   29 ar
    54   28   61 1
    55   29   62 1
    56   30   38 1
    57   30   31 2
    58   31   36 ar
    59   31   32 ar
    60   32   33 ar
    61   32   63 1
    62   33   34 ar
    63   33   64 1
    64   34   35 ar
    65   34   65 1
    66   35   36 ar
    67   35   66 1
    68   36   37 2
    69   37   38 1
    70   37   69 1
    71   38   67 1
    72   38   68 1
@<TRIPOS>MOLECULE
ZINC36370929
   66    69     0     0     0
SMALL
USER_CHARGES

@<TRIPOS>ATOM
      1 C1         -0.2273    1.5321    0.1736 C.3       1 <0>        -0.1940
      2 C2         -0.0018    0.0279    0.0077 C.3       1 <0>         0.0254
      3 H1          0.5211   -0.1599   -0.9300 H         1 <0>         0.1473
      4 C3          0.8398   -0.4934    1.1743 C.3       1 <0>        -0.1075
      5 H2          0.3704   -0.2305    2.1223 H         1 <0>         0.1022
      6 C4          1.0040   -2.0230    1.0690 C.3       1 <0>        -0.1353
      7 C5          2.5200   -2.2932    0.9504 C.3       1 <0>        -0.1238
      8 C6          3.1751   -1.0429    1.6073 C.3       1 <0>        -0.0721
      9 H3          4.2124   -0.9047    1.3024 H         1 <0>         0.0950
     10 C7          2.2569    0.0909    1.1062 C.3       1 <0>        -0.0383
     11 C8          2.3949    1.3709    1.8972 C.3       1 <0>        -0.1192
     12 C9          2.2384    1.1300    3.3999 C.3       1 <0>        -0.1113
     13 C10         3.2997    0.1140    3.8294 C.3       1 <0>        -0.0404
     14 H4          4.2845    0.4769    3.5353 H         1 <0>         0.0838
     15 C11         3.0325   -1.2143    3.1197 C.3       1 <0>        -0.0740
     16 H5          2.0171   -1.5364    3.3508 H         1 <0>         0.0718
     17 C12         4.0095   -2.2699    3.6391 C.3       1 <0>        -0.1169
     18 C13         3.6371   -2.5947    5.0853 C.3       1 <0>        -0.0815
     19 C14         3.4690   -1.3370    5.8969 C.ar      1 <0>        -0.0593
     20 C15         3.2704   -0.0893    5.3184 C.ar      1 <0>        -0.0869
     21 C16         3.0970    1.0253    6.1277 C.ar      1 <0>        -0.1027
     22 C17         3.0693    0.8990    7.5006 C.ar      1 <0>        -0.1469
     23 C18         3.2160   -0.3536    8.0783 C.ar      1 <0>         0.1077
     24 C19         3.4690   -1.4580    7.2797 C.ar      1 <0>        -0.1452
     25 O1          3.1924   -0.4890    9.4304 O.3       1 <0>        -0.4984
     26 C20         2.5975    0.3941   -0.3543 C.3       1 <0>        -0.1673
     27 N1         -1.2982   -0.6628   -0.0078 N.4       1 <0>        -0.5075
     28 C21        -2.0585   -0.2505   -1.1952 C.3       1 <0>        -0.0135
     29 C22        -3.4088   -0.9699   -1.2114 C.3       1 <0>         0.0250
     30 N2         -4.1691   -0.5576   -2.3988 N.3       1 <0>        -0.5377
     31 C23        -5.3619   -1.3962   -2.5775 C.3       1 <0>         0.0194
     32 C24        -4.5314    0.8641   -2.3244 C.3       1 <0>         0.0089
     33 H6          0.7351    2.0431    0.1985 H         1 <0>         0.1176
     34 H7         -0.8156    1.9059   -0.6644 H         1 <0>         0.0816
     35 H8         -0.7620    1.7188    1.1049 H         1 <0>         0.0827
     36 H9          0.6074   -2.5040    1.9631 H         1 <0>         0.0830
     37 H10         0.4877   -2.3943    0.1838 H         1 <0>         0.0586
     38 H11         2.7911   -3.1977    1.4950 H         1 <0>         0.0805
     39 H12         2.8135   -2.3733   -0.0963 H         1 <0>         0.0733
     40 H13         3.3780    1.8016    1.7071 H         1 <0>         0.0757
     41 H14         1.6307    2.0754    1.5689 H         1 <0>         0.0706
     42 H15         2.3840    2.0655    3.9401 H         1 <0>         0.0741
     43 H16         1.2442    0.7346    3.6080 H         1 <0>         0.0627
     44 H17         3.9362   -3.1704    3.0294 H         1 <0>         0.0728
     45 H18         5.0267   -1.8804    3.5999 H         1 <0>         0.0692
     46 H19         2.7025   -3.1554    5.0968 H         1 <0>         0.0754
     47 H20         4.4243   -3.2043    5.5291 H         1 <0>         0.0787
     48 H21         2.9831    2.0006    5.6778 H         1 <0>         0.1261
     49 H22         2.9343    1.7711    8.1231 H         1 <0>         0.1295
     50 H23         3.5917   -2.4311    7.7318 H         1 <0>         0.1281
     51 H24         2.3100   -0.6430    9.7948 H         1 <0>         0.3928
     52 H25         1.9466    1.1873   -0.7220 H         1 <0>         0.0628
     53 H26         3.6369    0.7145   -0.4261 H         1 <0>         0.0714
     54 H27         2.4516   -0.5035   -0.9553 H         1 <0>         0.0621
     55 H28        -1.1477   -1.6601   -0.0344 H         1 <0>         0.4252
     56 H29        -2.2212    0.8269   -1.1665 H         1 <0>         0.1333
     57 H30        -1.4981   -0.5095   -2.0935 H         1 <0>         0.1407
     58 H31        -3.2461   -2.0473   -1.2401 H         1 <0>         0.0967
     59 H32        -3.9692   -0.7108   -0.3131 H         1 <0>         0.0572
     60 H33        -6.0046   -1.3050   -1.7019 H         1 <0>         0.0361
     61 H34        -5.9063   -1.0695   -3.4635 H         1 <0>         0.0837
     62 H35        -5.0598   -2.4363   -2.6997 H         1 <0>         0.0768
     63 H36        -3.6255    1.4672   -2.2627 H         1 <0>         0.0695
     64 H37        -5.0934    1.1429   -3.2158 H         1 <0>         0.0845
     65 H38        -5.1440    1.0371   -1.4397 H         1 <0>         0.0366
     66 H39        -1.8170   -0.4230    0.8237 H         1 <0>         0.4233
@<TRIPOS>BOND
     1    1    2 1
     2    1   33 1
     3    1   34 1
     4    1   35 1
     5    2    3 1
     6    2    4 1
     7    2   27 1
     8    4    5 1
     9    4   10 1
    10    4    6 1
    11    6    7 1
    12    6   36 1
    13    6   37 1
    14    7    8 1
    15    7   38 1
    16    7   39 1
    17    8    9 1
    18    8   15 1
    19    8   10 1
    20   10   11 1
    21   10   26 1
    22   11   12 1
    23   11   40 1
    24   11   41 1
    25   12   13 1
    26   12   42 1
    27   12   43 1
    28   13   14 1
    29   13   20 1
    30   13   15 1
    31   15   16 1
    32   15   17 1
    33   17   18 1
    34   17   44 1
    35   17   45 1
    36   18   19 1
    37   18   46 1
    38   18   47 1
    39   19   24 ar
    40   19   20 ar
    41   20   21 ar
    42   21   22 ar
    43   21   48 1
    44   22   23 ar
    45   22   49 1
    46   23   24 ar
    47   23   25 1
    48   24   50 1
    49   25   51 1
    50   26   52 1
    51   26   53 1
    52   26   54 1
    53   27   28 1
    54   27   55 1
    55   27   66 1
    56   28   29 1
    57   28   56 1
    58   28   57 1
    59   29   30 1
    60   29   58 1
    61   29   59 1
    62   30   31 1
    63   30   32 1
    64   31   60 1
    65   31   61 1
    66   31   62 1
    67   32   63 1
    68   32   64 1
    69   32   65 1
@<TRIPOS>MOLECULE
ZINC37860092
   38    39     0     0     0
SMALL
USER_CHARGES

@<TRIPOS>ATOM
      1 C1         -0.0167    1.3778    0.0096 C.ar      1 <0>        -0.1038
      2 C2          1.1711    2.0855    0.0021 C.ar      1 <0>        -0.0860
      3 C3          2.3776    1.4114   -0.0135 C.ar      1 <0>        -0.1377
      4 C4          2.3973    0.0292   -0.0216 C.ar      1 <0>        -0.0805
      5 C5          1.2095   -0.6792   -0.0136 C.ar      1 <0>        -0.0872
      6 C6          0.0021   -0.0041    0.0020 C.ar      1 <0>        -0.0715
      7 Br1         1.2358   -2.5700   -0.0253 Br        1 <0>        -0.0267
      8 C7          3.6719    2.1834   -0.0223 C.3       1 <0>         0.1371
      9 H1          3.4858    3.2007   -0.3664 H         1 <0>         0.1348
     10 C8          4.2523    2.2219    1.3929 C.3       1 <0>        -0.0440
     11 N1          5.4491    3.0736    1.4082 N.4       1 <0>        -0.5049
     12 C9          6.0064    3.1105    2.7669 C.3       1 <0>        -0.0085
     13 C10         7.2529    3.9976    2.7829 C.3       1 <0>        -0.1071
     14 C11         7.8245    4.0355    4.1768 C.ar      1 <0>        -0.0953
     15 C12         7.4804    5.0613    5.0372 C.ar      1 <0>        -0.0819
     16 C13         8.0042    5.0967    6.3156 C.ar      1 <0>        -0.0997
     17 C14         8.8733    4.1050    6.7352 C.ar      1 <0>        -0.0128
     18 C15         9.2177    3.0782    5.8750 C.ar      1 <0>        -0.0975
     19 C16         8.6892    3.0407    4.5969 C.ar      1 <0>        -0.0189
     20 Cl1         9.1161    1.7490    3.5185 Cl        1 <0>        -0.0499
     21 Cl2         9.5317    4.1500    8.3409 Cl        1 <0>        -0.0346
     22 O1          4.6010    1.5457   -0.9010 O.3       1 <0>        -0.5453
     23 H2         -0.9592    1.9049    0.0260 H         1 <0>         0.1429
     24 H3          1.1560    3.1654    0.0080 H         1 <0>         0.1356
     25 H4          3.3402   -0.4974   -0.0346 H         1 <0>         0.1321
     26 H5         -0.9257   -0.5568    0.0083 H         1 <0>         0.1427
     27 H6          3.5091    2.6272    2.0795 H         1 <0>         0.1469
     28 H7          4.5209    1.2121    1.7030 H         1 <0>         0.1380
     29 H8          6.1371    2.6984    0.7726 H         1 <0>         0.4337
     30 H9          5.2631    3.5158    3.4536 H         1 <0>         0.1382
     31 H10         6.2750    2.1007    3.0770 H         1 <0>         0.1329
     32 H11         7.9961    3.5923    2.0963 H         1 <0>         0.1040
     33 H12         6.9842    5.0074    2.4728 H         1 <0>         0.1064
     34 H13         6.8021    5.8355    4.7102 H         1 <0>         0.1468
     35 H14         7.7355    5.8988    6.9871 H         1 <0>         0.1491
     36 H15         9.8960    2.3041    6.2020 H         1 <0>         0.1522
     37 H16         4.8136    0.6350   -0.6549 H         1 <0>         0.3898
     38 H17         5.2004    4.0084    1.1212 H         1 <0>         0.4303
@<TRIPOS>BOND
     1    1    6 ar
     2    1    2 ar
     3    1   23 1
     4    2    3 ar
     5    2   24 1
     6    3    4 ar
     7    3    8 1
     8    4    5 ar
     9    4   25 1
    10    5    6 ar
    11    5    7 1
    12    6   26 1
    13    8    9 1
    14    8   10 1
    15    8   22 1
    16   10   11 1
    17   10   27 1
    18   10   28 1
    19   11   12 1
    20   11   29 1
    21   11   38 1
    22   12   13 1
    23   12   30 1
    24   12   31 1
    25   13   14 1
    26   13   32 1
    27   13   33 1
    28   14   19 ar
    29   14   15 ar
    30   15   16 ar
    31   15   34 1
    32   16   17 ar
    33   16   35 1
    34   17   18 ar
    35   17   21 1
    36   18   19 ar
    37   18   36 1
    38   19   20 1
    39   22   37 1
@<TRIPOS>MOLECULE
ZINC43040080
   35    36     0     0     0
SMALL
USER_CHARGES

@<TRIPOS>ATOM
      1 C1         -0.1304    1.5904    0.0544 C.3       1 <0>        -0.1292
      2 C2         -0.2082    0.0865   -0.0018 C.ar      1 <0>        -0.0675
      3 C3         -0.3370   -0.5540   -1.2202 C.ar      1 <0>        -0.1160
      4 C4         -0.4084   -1.9333   -1.2718 C.ar      1 <0>        -0.0892
      5 C5         -0.3506   -2.6726   -0.1049 C.ar      1 <0>        -0.1213
      6 C6         -0.2209   -2.0324    1.1131 C.ar      1 <0>        -0.0804
      7 C7         -0.1452   -0.6528    1.1643 C.ar      1 <0>        -0.1222
      8 C8          0.0014    0.0450    2.4920 C.3       1 <0>         0.1074
      9 H1         -0.5469    0.9868    2.4699 H         1 <0>         0.1130
     10 C9          1.4817    0.3229    2.7613 C.3       1 <0>        -0.0286
     11 N1          1.6246    1.0031    4.0555 N.4       1 <0>        -0.6417
     12 O1         -0.5232   -0.7875    3.5282 O.3       1 <0>        -0.2922
     13 C10        -1.0766   -0.1627    4.6008 C.ar      1 <0>         0.1120
     14 C11        -1.1903    1.2198    4.6171 C.ar      1 <0>        -0.2517
     15 C12        -1.7536    1.8527    5.7082 C.ar      1 <0>        -0.0342
     16 C13        -2.2040    1.1090    6.7839 C.ar      1 <0>        -0.1298
     17 C14        -2.0917   -0.2695    6.7698 C.ar      1 <0>        -0.0302
     18 C15        -1.5339   -0.9070    5.6786 C.ar      1 <0>        -0.1312
     19 I1         -3.0571    2.0721    8.4373 I         1 <0>        -0.0107
     20 H2          0.9111    1.9033   -0.0188 H         1 <0>         0.0773
     21 H3         -0.6964    2.0148   -0.7748 H         1 <0>         0.0828
     22 H4         -0.5496    1.9410    0.9976 H         1 <0>         0.0613
     23 H5         -0.3821    0.0235   -2.1317 H         1 <0>         0.1332
     24 H6         -0.5097   -2.4336   -2.2235 H         1 <0>         0.1331
     25 H7         -0.4070   -3.7504   -0.1451 H         1 <0>         0.1325
     26 H8         -0.1761   -2.6099    2.0247 H         1 <0>         0.1329
     27 H9          2.0300   -0.6189    2.7834 H         1 <0>         0.1515
     28 H10         1.8818    0.9579    1.9709 H         1 <0>         0.1543
     29 H11         1.2542    0.4153    4.7871 H         1 <0>         0.4346
     30 H12         2.6008    1.1863    4.2331 H         1 <0>         0.4422
     31 H13        -0.8384    1.8009    3.7775 H         1 <0>         0.1345
     32 H14        -1.8420    2.9290    5.7214 H         1 <0>         0.1429
     33 H15        -2.4441   -0.8482    7.6109 H         1 <0>         0.1480
     34 H16        -1.4505   -1.9837    5.6661 H         1 <0>         0.1504
     35 H17         1.1170    1.8749    4.0351 H         1 <0>         0.4322
@<TRIPOS>BOND
     1    1    2 1
     2    1   20 1
     3    1   21 1
     4    1   22 1
     5    2    7 ar
     6    2    3 ar
     7    3    4 ar
     8    3   23 1
     9    4    5 ar
    10    4   24 1
    11    5    6 ar
    12    5   25 1
    13    6    7 ar
    14    6   26 1
    15    7    8 1
    16    8    9 1
    17    8   10 1
    18    8   12 1
    19   10   11 1
    20   10   27 1
    21   10   28 1
    22   11   29 1
    23   11   30 1
    24   11   35 1
    25   12   13 1
    26   13   18 ar
    27   13   14 ar
    28   14   15 ar
    29   14   31 1
    30   15   16 ar
    31   15   32 1
    32   16   17 ar
    33   16   19 1
    34   17   18 ar
    35   17   33 1
    36   18   34 1
@<TRIPOS>MOLECULE
ZINC48797841
   35    36     0     0     0
SMALL
USER_CHARGES

@<TRIPOS>ATOM
      1 C1         -0.0167    1.3782    0.0096 C.ar      1 <0>        -0.1073
      2 C2          1.1699    2.0883    0.0021 C.ar      1 <0>        -0.0812
      3 C3          2.3777    1.4179   -0.0134 C.ar      1 <0>        -0.1169
      4 C4          2.4000    0.0310   -0.0211 C.ar      1 <0>         0.1282
      5 C5          1.2079   -0.6798   -0.0130 C.ar      1 <0>        -0.1084
      6 C6          0.0021   -0.0041    0.0020 C.ar      1 <0>        -0.0640
      7 Br1         1.2333   -2.5706   -0.0240 Br        1 <0>        -0.0152
      8 O1          3.5871   -0.6308   -0.0368 O.3       1 <0>        -0.3244
      9 C7          4.1668   -0.9534    1.2288 C.3       1 <0>         0.1089
     10 C8          5.4697   -1.6797    1.0141 C.ar      1 <0>        -0.1162
     11 C9          5.9208   -1.9251   -0.2692 C.ar      1 <0>        -0.0683
     12 C10         7.1158   -2.5907   -0.4669 C.ar      1 <0>        -0.1001
     13 C11         7.8616   -3.0126    0.6194 C.ar      1 <0>        -0.0616
     14 C12         7.4117   -2.7684    1.9038 C.ar      1 <0>        -0.1206
     15 C13         6.2176   -2.0962    2.1022 C.ar      1 <0>         0.1163
     16 F1          5.7796   -1.8521    3.3567 F         1 <0>        -0.1264
     17 Br2         9.4962   -3.9238    0.3474 Br        1 <0>        -0.0199
     18 C14         3.6701    2.1929   -0.0226 C.3       1 <0>        -0.1000
     19 C15         4.1576    2.3545   -1.4638 C.3       1 <0>        -0.0056
     20 N1          5.4175    3.1099   -1.4728 N.4       1 <0>        -0.6378
     21 H1         -0.9597    1.9044    0.0259 H         1 <0>         0.1447
     22 H2          1.1523    3.1681    0.0080 H         1 <0>         0.1392
     23 H3         -0.9260   -0.5564    0.0079 H         1 <0>         0.1462
     24 H4          4.3501   -0.0364    1.7889 H         1 <0>         0.0754
     25 H5          3.4834   -1.5911    1.7895 H         1 <0>         0.0832
     26 H6          5.3390   -1.5968   -1.1178 H         1 <0>         0.1491
     27 H7          7.4674   -2.7820   -1.4700 H         1 <0>         0.1442
     28 H8          7.9934   -3.0983    2.7518 H         1 <0>         0.1527
     29 H9          3.5072    3.1764    0.4183 H         1 <0>         0.1012
     30 H10         4.4205    1.6548    0.5566 H         1 <0>         0.0965
     31 H11         4.3205    1.3711   -1.9047 H         1 <0>         0.1395
     32 H12         3.4072    2.8926   -2.0430 H         1 <0>         0.1369
     33 H13         5.7390    3.2165   -2.4232 H         1 <0>         0.4405
     34 H14         5.2667    4.0203   -1.0646 H         1 <0>         0.4354
     35 H15         6.1121    2.6119   -0.9366 H         1 <0>         0.4359
@<TRIPOS>BOND
     1    1    6 ar
     2    1    2 ar
     3    1   21 1
     4    2    3 ar
     5    2   22 1
     6    3    4 ar
     7    3   18 1
     8    4    5 ar
     9    4    8 1
    10    5    6 ar
    11    5    7 1
    12    6   23 1
    13    8    9 1
    14    9   10 1
    15    9   24 1
    16    9   25 1
    17   10   15 ar
    18   10   11 ar
    19   11   12 ar
    20   11   26 1
    21   12   13 ar
    22   12   27 1
    23   13   14 ar
    24   13   17 1
    25   14   15 ar
    26   14   28 1
    27   15   16 1
    28   18   19 1
    29   18   29 1
    30   18   30 1
    31   19   20 1
    32   19   31 1
    33   19   32 1
    34   20   33 1
    35   20   34 1
    36   20   35 1
@<TRIPOS>MOLECULE
ZINC62853194
   38    39     0     0     0
SMALL
USER_CHARGES

@<TRIPOS>ATOM
      1 C1          0.4344    0.2754    1.8427 C.3       1 <0>        -0.1691
      2 C2         -0.1717    0.5134    0.4581 C.3       1 <0>        -0.1115
      3 C3          0.6383   -0.2504   -0.5913 C.3       1 <0>        -0.0975
      4 C4          0.0709    0.0374   -1.9843 C.3       1 <0>        -0.1308
      5 C5          0.8378   -0.7918   -3.0185 C.3       1 <0>        -0.1533
      6 C6          0.7425   -2.2735   -2.6483 C.3       1 <0>        -0.0104
      7 N1          1.3248   -2.4876   -1.3180 N.4       1 <0>        -0.5071
      8 C7          0.5504   -1.7522   -0.3111 C.3       1 <0>         0.0123
      9 C8          2.0787    0.1889   -0.5330 C.2       1 <0>         0.5226
     10 O1          2.9316   -0.5793   -0.1413 O.2       1 <0>        -0.5313
     11 N2          2.4190    1.4354   -0.9162 N.am      1 <0>        -0.6527
     12 C9          3.7237    1.8986   -0.7117 C.ar      1 <0>         0.1393
     13 C10         4.7997    1.0321   -0.8530 C.ar      1 <0>        -0.1129
     14 C11         6.0862    1.4921   -0.6510 C.ar      1 <0>        -0.0671
     15 C12         6.3034    2.8145   -0.3079 C.ar      1 <0>        -0.1045
     16 C13         5.2335    3.6799   -0.1664 C.ar      1 <0>        -0.0632
     17 C14         3.9452    3.2269   -0.3727 C.ar      1 <0>        -0.1295
     18 I1          8.2564    3.5077   -0.0011 I         1 <0>        -0.0238
     19 H1          0.3337   -0.7772    2.1073 H         1 <0>         0.0621
     20 H2          1.4899    0.5472    1.8289 H         1 <0>         0.0596
     21 H3         -0.0886    0.8866    2.5782 H         1 <0>         0.0767
     22 H4         -1.2033    0.1615    0.4477 H         1 <0>         0.0949
     23 H5         -0.1489    1.5790    0.2298 H         1 <0>         0.0887
     24 H6         -0.9848   -0.2327   -2.0108 H         1 <0>         0.1045
     25 H7          0.1829    1.0976   -2.2116 H         1 <0>         0.0976
     26 H8          0.4033   -0.6346   -4.0057 H         1 <0>         0.1226
     27 H9          1.8838   -0.4854   -3.0274 H         1 <0>         0.0850
     28 H10        -0.3038   -2.5789   -2.6399 H         1 <0>         0.1352
     29 H11         1.2873   -2.8668   -3.3827 H         1 <0>         0.1363
     30 H12         1.3089   -3.4726   -1.0997 H         1 <0>         0.4342
     31 H13         0.9534   -1.9606    0.6800 H         1 <0>         0.1434
     32 H14        -0.4918   -2.0687   -0.3525 H         1 <0>         0.1440
     33 H15         1.7597    2.0115   -1.3337 H         1 <0>         0.4179
     34 H16         4.6306   -0.0006   -1.1202 H         1 <0>         0.1420
     35 H17         6.9233    0.8187   -0.7608 H         1 <0>         0.1369
     36 H18         5.4061    4.7117    0.1019 H         1 <0>         0.1398
     37 H19         3.1106    3.9041   -0.2665 H         1 <0>         0.1375
     38 H20         2.2789   -2.1594   -1.3128 H         1 <0>         0.4314
@<TRIPOS>BOND
     1    1    2 1
     2    1   19 1
     3    1   20 1
     4    1   21 1
     5    2    3 1
     6    2   22 1
     7    2   23 1
     8    3    8 1
     9    3    4 1
    10    3    9 1
    11    4    5 1
    12    4   24 1
    13    4   25 1
    14    5    6 1
    15    5   26 1
    16    5   27 1
    17    6    7 1
    18    6   28 1
    19    6   29 1
    20    7    8 1
    21    7   30 1
    22    7   38 1
    23    8   31 1
    24    8   32 1
    25    9   10 2
    26    9   11 am
    27   11   12 1
    28   11   33 1
    29   12   17 ar
    30   12   13 ar
    31   13   14 ar
    32   13   34 1
    33   14   15 ar
    34   14   35 1
    35   15   16 ar
    36   15   18 1
    37   16   17 ar
    38   16   36 1
    39   17   37 1
@<TRIPOS>MOLECULE
ZINC04221560
   47    49     0     0     0
SMALL
USER_CHARGES
methyl 1-(4-chlorophenyl)sulfonyl-4-(4,5-dicarbamoyltriazol-1-yl)-pyrrolidine-2-carboxylate
@<TRIPOS>ATOM
      1 C1         -2.5937    0.5317   -0.0770 C.3       1 <0>         0.0348
      2 O1         -1.4649    1.4287    0.0951 O.3       1 <0>        -0.3528
      3 C2         -0.2482    0.9385   -0.1894 C.2       1 <0>         0.4493
      4 O2         -0.1302   -0.2022   -0.5698 O.2       1 <0>        -0.4793
      5 C3          0.9702    1.8129   -0.0405 C.3       1 <0>         0.1654
      6 H1          0.8340    2.4988    0.7956 H         1 <0>         0.1278
      7 C4          1.2059    2.6104   -1.3405 C.3       1 <0>        -0.1224
      8 C5          2.7515    2.6046   -1.4762 C.3       1 <0>         0.1267
      9 H2          3.2002    3.3887   -0.8663 H         1 <0>         0.1419
     10 C6          3.1068    1.2006   -0.9264 C.3       1 <0>         0.1155
     11 N1          2.1602    0.9787    0.1818 N.pl3     1 <0>        -0.9912
     12 S1          2.3982   -0.0409    1.4648 S.o2      1 <0>         2.7053
     13 O3          1.1126   -0.3334    1.9949 O.2       1 <0>        -0.9318
     14 O4          3.2868   -1.0556    1.0177 O.2       1 <0>        -0.9295
     15 C7          3.2578    0.8716    2.7029 C.ar      1 <0>        -0.6836
     16 C8          4.6365    0.9635    2.6613 C.ar      1 <0>        -0.0062
     17 C9          5.3109    1.6839    3.6290 C.ar      1 <0>        -0.1284
     18 C10         4.6068    2.3036    4.6460 C.ar      1 <0>         0.0210
     19 C11         3.2274    2.2065    4.6904 C.ar      1 <0>        -0.1293
     20 C12         2.5536    1.4906    3.7189 C.ar      1 <0>        -0.0058
     21 Cl1         5.4536    3.2031    5.8656 Cl        1 <0>        -0.0469
     22 N2          3.1561    2.7374   -2.8780 N.pl3     1 <0>        -0.2590
     23 C13         3.9917    3.6903   -3.3803 C.2       1 <0>         0.0061
     24 C14         4.0836    3.4209   -4.7432 C.2       1 <0>        -0.0238
     25 N3          3.3038    2.3491   -4.9579 N.2       1 <0>        -0.2227
     26 N4          2.7790    1.9784   -3.8452 N.2       1 <0>        -0.0439
     27 C15         4.8726    4.1657   -5.7484 C.2       1 <0>         0.6080
     28 O5          5.5383    5.1246   -5.4097 O.2       1 <0>        -0.5205
     29 N5          4.8534    3.7811   -7.0400 N.am      1 <0>        -0.8316
     30 C16         4.6600    4.7760   -2.6362 C.2       1 <0>         0.6046
     31 O6          5.8162    4.6486   -2.2828 O.2       1 <0>        -0.4937
     32 N6          3.9884    5.9085   -2.3486 N.am      1 <0>        -0.8334
     33 H3         -2.4694   -0.3370    0.5695 H         1 <0>         0.0693
     34 H4         -3.5146    1.0519    0.1865 H         1 <0>         0.1060
     35 H5         -2.6445    0.2070   -1.1162 H         1 <0>         0.0658
     36 H6          0.7423    2.1089   -2.1900 H         1 <0>         0.1109
     37 H7          0.8285    3.6283   -1.2424 H         1 <0>         0.1199
     38 H8          2.9697    0.4446   -1.6996 H         1 <0>         0.1059
     39 H9          4.1331    1.1854   -0.5597 H         1 <0>         0.1044
     40 H10         5.1864    0.4760    1.8698 H         1 <0>         0.1497
     41 H11         6.3877    1.7593    3.5939 H         1 <0>         0.1483
     42 H12         2.6771    2.6904    5.4838 H         1 <0>         0.1482
     43 H13         1.4769    1.4145    3.7536 H         1 <0>         0.1530
     44 H14         4.3222    3.0159   -7.3103 H         1 <0>         0.4120
     45 H15         5.3709    4.2696   -7.6992 H         1 <0>         0.4131
     46 H16         3.0903    6.0400   -2.6909 H         1 <0>         0.4059
     47 H17         4.4030    6.5921   -1.7994 H         1 <0>         0.4170
@<TRIPOS>BOND
     1    1    2 1
     2    1   33 1
     3    1   34 1
     4    1   35 1
     5    2    3 1
     6    3    4 2
     7    3    5 1
     8    5    6 1
     9    5   11 1
    10    5    7 1
    11    7    8 1
    12    7   36 1
    13    7   37 1
    14    8    9 1
    15    8   10 1
    16    8   22 1
    17   10   11 1
    18   10   38 1
    19   10   39 1
    20   11   12 1
    21   12   13 2
    22   12   14 2
    23   12   15 1
    24   15   20 ar
    25   15   16 ar
    26   16   17 ar
    27   16   40 1
    28   17   18 ar
    29   17   41 1
    30   18   19 ar
    31   18   21 1
    32   19   20 ar
    33   19   42 1
    34   20   43 1
    35   22   26 1
    36   22   23 1
    37   23   24 2
    38   23   30 1
    39   24   25 1
    40   24   27 1
    41   25   26 2
    42   27   28 2
    43   27   29 am
    44   29   44 1
    45   29   45 1
    46   30   31 2
    47   30   32 am
    48   32   46 1
    49   32   47 1
@<TRIPOS>MOLECULE
ZINC20487482
   44    46     0     0     0
SMALL
USER_CHARGES
3-[(2-amino-5-bromo-3-pyridyl)sulfonylamino]-N-(1,3-benzodioxol-5-ylmethyl)propanamide
@<TRIPOS>ATOM
      1 C1          0.5508    0.2305    0.7074 C.ar      1 <0>        -0.0884
      2 C2          1.7905    0.8390    0.7783 C.ar      1 <0>        -0.1013
      3 C3          1.8912    2.2181    0.7002 C.ar      1 <0>         0.0410
      4 C4          0.7409    2.9894    0.5497 C.ar      1 <0>         0.0318
      5 C5         -0.4975    2.3730    0.4793 C.ar      1 <0>        -0.0823
      6 C6         -0.5899    0.9953    0.5528 C.ar      1 <0>        -0.1001
      7 C7         -1.9379    0.3267    0.4703 C.3       1 <0>         0.1668
      8 N1         -2.5022    0.1975    1.8161 N.am      1 <0>        -0.7377
      9 C8         -3.7102   -0.3747    1.9884 C.2       1 <0>         0.5167
     10 O1         -4.3301   -0.7828    1.0292 O.2       1 <0>        -0.5386
     11 C9         -4.2906   -0.5076    3.3727 C.3       1 <0>        -0.1462
     12 C10        -5.6592   -1.1864    3.2890 C.3       1 <0>         0.1314
     13 N2         -6.2234   -1.3155    4.6348 N.pl3     1 <0>        -1.1253
     14 S1         -7.8321   -1.6571    4.8290 S.o2      1 <0>         2.7026
     15 O2         -8.0616   -1.7498    6.2282 O.2       1 <0>        -0.9548
     16 O3         -8.5431   -0.7491    3.9988 O.2       1 <0>        -0.9462
     17 C11        -8.1067   -3.2664    4.1659 C.ar      1 <0>        -0.8051
     18 C12        -8.9269   -3.4406    3.0656 C.ar      1 <0>         0.0987
     19 C13        -9.1148   -4.7269    2.5761 C.ar      1 <0>        -0.2322
     20 C14        -8.4819   -5.7861    3.1974 C.ar      1 <0>         0.2432
     21 N3         -7.7050   -5.5892    4.2456 N.ar      1 <0>        -0.5446
     22 C15        -7.4971   -4.3778    4.7382 C.ar      1 <0>         0.5094
     23 N4         -6.6660   -4.2161    5.8413 N.pl3     1 <0>        -0.8567
     24 Br1       -10.2247   -5.0250    1.0743 Br        1 <0>        -0.0261
     25 O4          1.1014    4.3049    0.4986 O.3       1 <0>        -0.3091
     26 C16         2.5118    4.3060    0.2087 C.3       1 <0>         0.2084
     27 O5          2.9720    3.0508    0.7433 O.3       1 <0>        -0.3035
     28 H1          0.4742   -0.8451    0.7686 H         1 <0>         0.1408
     29 H2          2.6806    0.2386    0.8950 H         1 <0>         0.1392
     30 H3         -1.3909    2.9685    0.3626 H         1 <0>         0.1380
     31 H4         -2.6109    0.9341   -0.1527 H         1 <0>         0.0798
     32 H5         -1.8252   -0.6717    0.0226 H         1 <0>         0.0816
     33 H6         -1.9399    0.5675    2.6861 H         1 <0>         0.4250
     34 H7         -3.6176   -1.1150    3.9957 H         1 <0>         0.1028
     35 H8         -4.4033    0.4908    3.8205 H         1 <0>         0.1081
     36 H9         -6.3322   -0.5790    2.6660 H         1 <0>         0.0956
     37 H10        -5.5465   -2.1848    2.8413 H         1 <0>         0.0702
     38 H11        -5.5572   -1.3501    5.5095 H         1 <0>         0.4383
     39 H12        -9.4101   -2.5956    2.5977 H         1 <0>         0.1617
     40 H13        -8.6251   -6.7880    2.8206 H         1 <0>         0.1739
     41 H14        -6.1813   -5.0917    6.2978 H         1 <0>         0.4417
     42 H15        -6.4932   -3.2126    6.2574 H         1 <0>         0.4268
     43 H16         2.6626    4.3760   -0.8787 H         1 <0>         0.0883
     44 H17         2.9866    5.1676    0.7009 H         1 <0>         0.1364
@<TRIPOS>BOND
     1    1    6 ar
     2    1    2 ar
     3    1   28 1
     4    2    3 ar
     5    2   29 1
     6    3   27 1
     7    3    4 ar
     8    4    5 ar
     9    4   25 1
    10    5    6 ar
    11    5   30 1
    12    6    7 1
    13    7    8 1
    14    7   31 1
    15    7   32 1
    16    8    9 am
    17    8   33 1
    18    9   10 2
    19    9   11 1
    20   11   12 1
    21   11   34 1
    22   11   35 1
    23   12   13 1
    24   12   36 1
    25   12   37 1
    26   13   14 1
    27   13   38 1
    28   14   15 2
    29   14   16 2
    30   14   17 1
    31   17   22 ar
    32   17   18 ar
    33   18   19 ar
    34   18   39 1
    35   19   20 ar
    36   19   24 1
    37   20   21 ar
    38   20   40 1
    39   21   22 ar
    40   22   23 1
    41   23   41 1
    42   23   42 1
    43   25   26 1
    44   26   27 1
    45   26   43 1
    46   26   44 1
@<TRIPOS>MOLECULE
ZINC35188413
   54    57     0     0     0
SMALL
USER_CHARGES

@<TRIPOS>ATOM
      1 C1         -0.0187    1.5258    0.0104 C.3       1 <0>        -0.1523
      2 C2          0.0021   -0.0041    0.0020 C.3       1 <0>         0.0501
      3 O1          0.6709   -0.4649   -1.1737 O.3       1 <0>        -0.3053
      4 C3          0.7768   -1.8106   -1.3362 C.ar      1 <0>         0.1210
      5 C4          0.2418   -2.6665   -0.3847 C.ar      1 <0>        -0.1995
      6 C5          0.3466   -4.0323   -0.5442 C.ar      1 <0>        -0.0442
      7 C6          0.9927   -4.5568   -1.6667 C.ar      1 <0>        -0.0688
      8 C7          1.5310   -3.6942   -2.6250 C.ar      1 <0>        -0.0794
      9 C8          1.4173   -2.3263   -2.4606 C.ar      1 <0>         0.0689
     10 O2          1.9352   -1.4839   -3.3942 O.3       1 <0>        -0.4842
     11 C9          1.1064   -6.0165   -1.8391 C.2       1 <0>         0.0956
     12 N1          0.6060   -6.8164   -0.9474 N.2       1 <0>        -0.1955
     13 N2          0.7141   -8.2036   -1.1112 N.pl3     1 <0>        -0.5258
     14 C10         0.1816   -9.0547   -0.1625 C.2       1 <0>         0.5654
     15 N3         -0.4482   -8.6774    0.9228 N.2       1 <0>        -0.4516
     16 C11        -0.8327   -9.7735    1.6207 C.2       1 <0>        -0.0583
     17 C12        -1.5291   -9.9733    2.8380 C.2       1 <0>         0.5707
     18 O3         -1.9229   -9.0259    3.4969 O.2       1 <0>        -0.5086
     19 N4         -1.7456  -11.2425    3.2493 N.am      1 <0>        -0.6406
     20 H1         -2.2203  -11.4062    4.0792 H         1 <0>         0.4263
     21 C13        -1.3029  -12.2892    2.5074 C.2       1 <0>         0.3738
     22 N5         -0.6603  -12.1216    1.3854 N.2       1 <0>        -0.5113
     23 C14        -0.4050  -10.8962    0.9069 C.2       1 <0>         0.2354
     24 N6          0.2258  -10.4211   -0.2147 N.pl3     1 <0>        -0.4499
     25 C15         0.8380  -11.2287   -1.2726 C.3       1 <0>         0.3011
     26 H2          0.4934  -12.2608   -1.2086 H         1 <0>         0.1334
     27 C16         2.3784  -11.1688   -1.1716 C.3       1 <0>         0.0712
     28 H3          2.7619  -12.0503   -0.6577 H         1 <0>         0.0999
     29 C17         2.8507  -11.1514   -2.6426 C.3       1 <0>         0.0444
     30 H4          3.4678  -12.0242   -2.8560 H         1 <0>         0.0947
     31 C18         1.5399  -11.2027   -3.4583 C.3       1 <0>         0.0472
     32 H5          1.3030  -12.2310   -3.7315 H         1 <0>         0.0993
     33 O4          0.5292  -10.6751   -2.5703 O.3       1 <0>        -0.3548
     34 C19         1.6582  -10.3335   -4.7118 C.3       1 <0>         0.0811
     35 O5          0.4826  -10.4858   -5.5099 O.3       1 <0>        -0.5621
     36 O6          3.5713   -9.9496   -2.9228 O.3       1 <0>        -0.5418
     37 O7          2.7900   -9.9785   -0.4965 O.3       1 <0>        -0.5296
     38 H6          1.0039    1.9031    0.0027 H         1 <0>         0.0663
     39 H7         -0.5459    1.8868   -0.8726 H         1 <0>         0.0672
     40 H8         -0.5289    1.8773    0.9072 H         1 <0>         0.0798
     41 H9          0.5293   -0.3651    0.8851 H         1 <0>         0.0644
     42 H10        -1.0205   -0.3814    0.0098 H         1 <0>         0.0648
     43 H11        -0.2578   -2.2624    0.4833 H         1 <0>         0.1367
     44 H12        -0.0702   -4.6964    0.1985 H         1 <0>         0.1438
     45 H13         2.0316   -4.0952   -3.4940 H         1 <0>         0.1403
     46 H14         2.8543   -1.2319   -3.2299 H         1 <0>         0.3863
     47 H15         1.6061   -6.4203   -2.7072 H         1 <0>         0.1168
     48 H16         1.1628   -8.5663   -1.8909 H         1 <0>         0.4051
     49 H17        -1.4887  -13.2937    2.8580 H         1 <0>         0.2177
     50 H18         1.7668   -9.2887   -4.4206 H         1 <0>         0.0629
     51 H19         2.5307  -10.6427   -5.2874 H         1 <0>         0.0667
     52 H20         0.4885   -9.9621   -6.3228 H         1 <0>         0.3877
     53 H21         3.8913   -9.8861   -3.8331 H         1 <0>         0.3855
     54 H22         3.7486   -9.8896   -0.4051 H         1 <0>         0.3923
@<TRIPOS>BOND
     1    1    2 1
     2    1   38 1
     3    1   39 1
     4    1   40 1
     5    2    3 1
     6    2   41 1
     7    2   42 1
     8    3    4 1
     9    4    9 ar
    10    4    5 ar
    11    5    6 ar
    12    5   43 1
    13    6    7 ar
    14    6   44 1
    15    7    8 ar
    16    7   11 1
    17    8    9 ar
    18    8   45 1
    19    9   10 1
    20   10   46 1
    21   11   12 2
    22   11   47 1
    23   12   13 1
    24   13   14 1
    25   13   48 1
    26   14   24 1
    27   14   15 2
    28   15   16 1
    29   16   23 2
    30   16   17 1
    31   17   18 2
    32   17   19 am
    33   19   20 1
    34   19   21 1
    35   21   22 2
    36   21   49 1
    37   22   23 1
    38   23   24 1
    39   24   25 1
    40   25   26 1
    41   25   33 1
    42   25   27 1
    43   27   28 1
    44   27   29 1
    45   27   37 1
    46   29   30 1
    47   29   31 1
    48   29   36 1
    49   31   32 1
    50   31   33 1
    51   31   34 1
    52   34   35 1
    53   34   50 1
    54   34   51 1
    55   35   52 1
    56   36   53 1
    57   37   54 1
@<TRIPOS>MOLECULE
ZINC40944508
   50    52     0     0     0
SMALL
USER_CHARGES

@<TRIPOS>ATOM
      1 C1          0.9143    1.1582    1.4163 C.3       1 <0>         0.0263
      2 O1          0.5273   -0.1746    1.0759 O.3       1 <0>        -0.3157
      3 C2          0.6011   -0.5223   -0.2345 C.ar      1 <0>         0.1297
      4 C3          1.0431    0.4008   -1.1724 C.ar      1 <0>        -0.1949
      5 C4          1.1198    0.0530   -2.5035 C.ar      1 <0>        -0.0598
      6 C5          0.7520   -1.2312   -2.9131 C.ar      1 <0>        -0.1559
      7 C6          0.3070   -2.1614   -1.9707 C.ar      1 <0>        -0.0404
      8 C7          0.2379   -1.8086   -0.6352 C.ar      1 <0>         0.1123
      9 N1         -0.2021   -2.7408    0.3144 N.am      1 <0>        -0.6533
     10 C8         -0.1459   -4.0593    0.0408 C.2       1 <0>         0.5024
     11 O2          0.3735   -4.4441   -0.9855 O.2       1 <0>        -0.4974
     12 C9         -0.7284   -5.0554    1.0100 C.3       1 <0>         0.0918
     13 N2         -0.5424   -6.4114    0.4874 N.am      1 <0>        -0.3209
     14 C10         0.5750   -7.0895    0.8094 C.2       1 <0>         0.4898
     15 O3          1.4183   -6.5780    1.5271 O.2       1 <0>        -0.5117
     16 C11         0.7642   -8.3976    0.3108 C.2       1 <0>        -0.1763
     17 C12        -0.2081   -8.9239   -0.4868 C.2       1 <0>        -0.0336
     18 C13        -1.3467   -8.1304   -0.7674 C.2       1 <0>         0.0275
     19 N3         -1.4519   -6.9224   -0.2608 N.2       1 <0>        -0.1753
     20 C14        -2.4234   -8.6649   -1.6282 C.2       1 <0>         0.5954
     21 O4         -2.3302   -9.7840   -2.0939 O.2       1 <0>        -0.4984
     22 N4         -3.5081   -7.9115   -1.8967 N.am      1 <0>        -0.6557
     23 C15        -4.5763   -8.4551   -2.6181 C.ar      1 <0>         0.1494
     24 C16        -5.3127   -7.6536   -3.4807 C.ar      1 <0>        -0.1282
     25 C17        -6.3664   -8.1930   -4.1921 C.ar      1 <0>        -0.0891
     26 C18        -6.6890   -9.5308   -4.0456 C.ar      1 <0>        -0.0481
     27 C19        -5.9568  -10.3317   -3.1867 C.ar      1 <0>        -0.0890
     28 C20        -4.8986   -9.7987   -2.4773 C.ar      1 <0>        -0.1078
     29 Cl1        -8.0149  -10.2053   -4.9404 Cl        1 <0>        -0.0676
     30 C21         0.8330   -1.6042   -4.3390 C.2       1 <0>         0.5661
     31 O5          0.5126   -2.7220   -4.6942 O.2       1 <0>        -0.5336
     32 N5          1.2621   -0.7056   -5.2472 N.am      1 <0>        -0.8518
     33 H1          1.9532    1.3196    1.1285 H         1 <0>         0.0604
     34 H2          0.2768    1.8676    0.8887 H         1 <0>         0.0606
     35 H3          0.8083    1.3041    2.4912 H         1 <0>         0.1058
     36 H4          1.3272    1.3942   -0.8580 H         1 <0>         0.1424
     37 H5          1.4640    0.7735   -3.2306 H         1 <0>         0.1327
     38 H6          0.0218   -3.1550   -2.2836 H         1 <0>         0.1716
     39 H7         -0.5471   -2.4370    1.1686 H         1 <0>         0.4204
     40 H8         -0.2238   -4.9644    1.9719 H         1 <0>         0.1456
     41 H9         -1.7927   -4.8582    1.1380 H         1 <0>         0.1420
     42 H10         1.6517   -8.9631    0.5536 H         1 <0>         0.1751
     43 H11        -0.1122   -9.9196   -0.8942 H         1 <0>         0.1682
     44 H12        -3.5482   -6.9922   -1.5897 H         1 <0>         0.4211
     45 H13        -5.0618   -6.6094   -3.5949 H         1 <0>         0.1378
     46 H14        -6.9394   -7.5702   -4.8630 H         1 <0>         0.1394
     47 H15        -6.2109  -11.3753   -3.0740 H         1 <0>         0.1390
     48 H16        -4.3249  -10.4251   -1.8102 H         1 <0>         0.1450
     49 H17         1.5176    0.1862   -4.9639 H         1 <0>         0.3999
     50 H18         1.3153   -0.9506   -6.1842 H         1 <0>         0.4067
@<TRIPOS>BOND
     1    1    2 1
     2    1   33 1
     3    1   34 1
     4    1   35 1
     5    2    3 1
     6    3    8 ar
     7    3    4 ar
     8    4    5 ar
     9    4   36 1
    10    5    6 ar
    11    5   37 1
    12    6    7 ar
    13    6   30 1
    14    7    8 ar
    15    7   38 1
    16    8    9 1
    17    9   10 am
    18    9   39 1
    19   10   11 2
    20   10   12 1
    21   12   13 1
    22   12   40 1
    23   12   41 1
    24   13   19 1
    25   13   14 am
    26   14   15 2
    27   14   16 1
    28   16   17 2
    29   16   42 1
    30   17   18 1
    31   17   43 1
    32   18   19 2
    33   18   20 1
    34   20   21 2
    35   20   22 am
    36   22   23 1
    37   22   44 1
    38   23   28 ar
    39   23   24 ar
    40   24   25 ar
    41   24   45 1
    42   25   26 ar
    43   25   46 1
    44   26   27 ar
    45   26   29 1
    46   27   28 ar
    47   27   47 1
    48   28   48 1
    49   30   31 2
    50   30   32 am
    51   32   49 1
    52   32   50 1
@<TRIPOS>MOLECULE
ZINC59914142
   52    54     0     0     0
SMALL
USER_CHARGES

@<TRIPOS>ATOM
      1 C1          0.0206    1.3674   -0.0569 C.3       1 <0>         0.0336
      2 O1          0.0355   -0.0615   -0.0552 O.3       1 <0>        -0.3907
      3 C2          0.7041   -0.6344    1.0703 C.3       1 <0>         0.0499
      4 C3          0.6587   -2.1603    0.9680 C.3       1 <0>         0.1356
      5 N1          1.3442   -2.7477    2.1218 N.pl3     1 <0>        -0.3629
      6 C4          0.8201   -3.6502    2.9759 C.2       1 <0>         0.0982
      7 C5          1.7878   -3.9408    3.9128 C.2       1 <0>        -0.2053
      8 C6          2.9274   -3.1731    3.5904 C.2       1 <0>         0.0947
      9 N2          2.6567   -2.4725    2.5222 N.2       1 <0>        -0.2968
     10 C7          1.6567   -4.8802    5.0440 C.2       1 <0>         0.1513
     11 N3          2.6526   -5.0609    5.8560 N.2       1 <0>        -0.2192
     12 N4          2.5282   -5.9524    6.9296 N.pl3     1 <0>        -0.5460
     13 C8          3.5927   -6.1456    7.7977 C.2       1 <0>         0.5346
     14 N5          4.7610   -5.5546    7.7281 N.2       1 <0>        -0.3191
     15 N6          5.5479   -6.0249    8.7875 N.2       1 <0>        -0.2938
     16 C9          4.8346   -6.8882    9.4701 C.2       1 <0>         0.1501
     17 N7          3.6060   -6.9814    8.8797 N.pl3     1 <0>        -0.3473
     18 N8          2.5732   -7.7728    9.2957 N.3       1 <0>        -0.5941
     19 S1          5.3653   -7.7684   10.9012 S.3       1 <0>         0.0741
     20 C10         7.0657   -7.1939   11.1643 C.3       1 <0>        -0.1418
     21 C11         7.6456   -7.8786   12.3751 C.2       1 <0>         0.5380
     22 O2          6.9775   -8.6757   12.9991 O.2       1 <0>        -0.4956
     23 N9          8.9066   -7.6051   12.7645 N.am      1 <0>        -0.6637
     24 C12         9.4122   -8.1661   13.9425 C.ar      1 <0>         0.1467
     25 C13        10.2879   -7.4398   14.7391 C.ar      1 <0>        -0.0902
     26 C14        10.7852   -7.9962   15.9010 C.ar      1 <0>        -0.0953
     27 C15        10.4121   -9.2753   16.2718 C.ar      1 <0>        -0.0676
     28 C16         9.5408  -10.0011   15.4807 C.ar      1 <0>        -0.0296
     29 C17         9.0350   -9.4478   14.3204 C.ar      1 <0>        -0.0623
     30 N10         9.1449  -11.3701   15.8807 N.pl3     1 <0>         0.0316
     31 O3          9.5832  -11.8530   16.8987 O.2       1 <0>        -0.1534
     32 O4          8.3831  -12.0053   15.1895 O.3       1 <0>        -0.1500
     33 H1          1.0444    1.7414   -0.0664 H         1 <0>         0.0456
     34 H2         -0.5048    1.7243   -0.9428 H         1 <0>         0.0917
     35 H3         -0.4891    1.7266    0.8371 H         1 <0>         0.0441
     36 H4          1.7421   -0.3020    1.0841 H         1 <0>         0.0676
     37 H5          0.2086   -0.3168    1.9877 H         1 <0>         0.0559
     38 H6         -0.3793   -2.4928    0.9541 H         1 <0>         0.1090
     39 H7          1.1542   -2.4780    0.0506 H         1 <0>         0.0993
     40 H8         -0.1749   -4.0680    2.9336 H         1 <0>         0.1861
     41 H9          3.8627   -3.1695    4.1305 H         1 <0>         0.1944
     42 H10         0.7319   -5.4170    5.1956 H         1 <0>         0.1203
     43 H11         1.6976   -6.4346    7.0658 H         1 <0>         0.4018
     44 H12         2.6169   -8.6824    8.8612 H         1 <0>         0.3635
     45 H13         2.5614   -7.8527   10.3015 H         1 <0>         0.3792
     46 H14         7.6693   -7.4319   10.2884 H         1 <0>         0.1364
     47 H15         7.0644   -6.1155   11.3225 H         1 <0>         0.1366
     48 H16         9.4636   -7.0195   12.2282 H         1 <0>         0.4234
     49 H17        10.5800   -6.4410   14.4500 H         1 <0>         0.1492
     50 H18        11.4665   -7.4321   16.5207 H         1 <0>         0.1553
     51 H19        10.8024   -9.7083   17.1809 H         1 <0>         0.1571
     52 H20         8.3505  -10.0133   13.7056 H         1 <0>         0.1699
@<TRIPOS>BOND
     1    1    2 1
     2    1   33 1
     3    1   34 1
     4    1   35 1
     5    2    3 1
     6    3    4 1
     7    3   36 1
     8    3   37 1
     9    4    5 1
    10    4   38 1
    11    4   39 1
    12    5    9 1
    13    5    6 1
    14    6    7 2
    15    6   40 1
    16    7    8 1
    17    7   10 1
    18    8    9 2
    19    8   41 1
    20   10   11 2
    21   10   42 1
    22   11   12 1
    23   12   13 1
    24   12   43 1
    25   13   17 1
    26   13   14 2
    27   14   15 1
    28   15   16 2
    29   16   17 1
    30   16   19 1
    31   17   18 1
    32   18   44 1
    33   18   45 1
    34   19   20 1
    35   20   21 1
    36   20   46 1
    37   20   47 1
    38   21   22 2
    39   21   23 am
    40   23   24 1
    41   23   48 1
    42   24   29 ar
    43   24   25 ar
    44   25   26 ar
    45   25   49 1
    46   26   27 ar
    47   26   50 1
    48   27   28 ar
    49   27   51 1
    50   28   29 ar
    51   28   30 1
    52   29   52 1
    53   30   31 2
    54   30   32 1
@<TRIPOS>MOLECULE
ZINC12369016
   51    53     0     0     0
SMALL
USER_CHARGES
(2R)-1-[(4,6-dichloro-2H-chromen-3-yl)methyleneamino]oxy-3-[[4-(trifluoromethyl)phenyl]methylamino]propan-2-ol
@<TRIPOS>ATOM
      1 C1         -3.5026   -7.1499   -0.6479 C.ar      1 <0>        -0.0907
      2 C2         -3.3250   -8.5170   -0.5461 C.ar      1 <0>        -0.0654
      3 C3         -3.1666   -9.1028    0.6959 C.ar      1 <0>        -0.1435
      4 C4         -3.1811   -8.3209    1.8358 C.ar      1 <0>        -0.0656
      5 C5         -3.3544   -6.9533    1.7337 C.ar      1 <0>        -0.0916
      6 C6         -3.5123   -6.3675    0.4916 C.ar      1 <0>        -0.1388
      7 C7         -3.7012   -4.8765    0.3803 C.3       1 <0>         0.0476
      8 C8         -2.5363   -2.7679    0.1371 C.3       1 <0>        -0.0371
      9 C9         -1.1538   -2.1264    0.0017 C.3       1 <0>         0.0854
     10 H1         -0.5253   -2.4382    0.8358 H         1 <0>         0.1325
     11 C10        -1.2953   -0.6030    0.0112 C.3       1 <0>         0.0507
     12 O1          0.0021   -0.0041    0.0020 O.3       1 <0>        -0.2382
     13 N1         -0.0171    1.4118    0.0098 N.2       1 <0>        -0.3119
     14 C11         1.0988    2.0765    0.0027 C.2       1 <0>         0.1519
     15 C12         1.0790    3.5375    0.0108 C.2       1 <0>        -0.1432
     16 C13        -0.1029    4.2028    0.0256 C.2       1 <0>         0.0493
     17 C14        -0.0639    5.6756    0.0131 C.ar      1 <0>        -0.1362
     18 C15        -1.1798    6.4356    0.3571 C.ar      1 <0>        -0.0471
     19 C16        -1.0978    7.8143    0.3332 C.ar      1 <0>        -0.0630
     20 C17         0.0851    8.4382   -0.0310 C.ar      1 <0>        -0.0538
     21 C18         1.1977    7.6920   -0.3747 C.ar      1 <0>        -0.1266
     22 C19         1.1333    6.3108   -0.3559 C.ar      1 <0>         0.1531
     23 O2          2.2072    5.5509   -0.6875 O.3       1 <0>        -0.2977
     24 C20         2.3713    4.3118    0.0089 C.3       1 <0>         0.1202
     25 Cl1        -2.4824    8.7699    0.7614 Cl        1 <0>        -0.0522
     26 Cl2        -1.6127    3.3466    0.0578 Cl        1 <0>        -0.0106
     27 O3         -0.5545   -2.5415   -1.2274 O.3       1 <0>        -0.5451
     28 C21        -2.9776  -10.5938    0.8073 C.3       1 <0>         0.5031
     29 F1         -4.2253  -11.2138    0.9339 F         1 <0>        -0.1677
     30 F2         -2.3349  -11.0694   -0.3408 F         1 <0>        -0.1701
     31 F3         -2.1972  -10.8823    1.9320 F         1 <0>        -0.1702
     32 H2         -3.6304   -6.6927   -1.6180 H         1 <0>         0.1459
     33 H3         -3.3133   -9.1279   -1.4367 H         1 <0>         0.1512
     34 H4         -3.0574   -8.7786    2.8062 H         1 <0>         0.1511
     35 H5         -3.3661   -6.3425    2.6243 H         1 <0>         0.1460
     36 H6         -4.2026   -4.5060    1.2744 H         1 <0>         0.1434
     37 H7         -4.3086   -4.6517   -0.4964 H         1 <0>         0.1429
     38 H8         -3.0296   -2.3828    1.0296 H         1 <0>         0.1473
     39 H9         -3.1356   -2.5284   -0.7413 H         1 <0>         0.1412
     40 H10        -1.8320   -0.2936    0.9080 H         1 <0>         0.0754
     41 H11        -1.8490   -0.2840   -0.8718 H         1 <0>         0.0711
     42 H12         2.0413    1.5493   -0.0091 H         1 <0>         0.1379
     43 H13        -2.1021    5.9503    0.6406 H         1 <0>         0.1447
     44 H14         0.1384    9.5168   -0.0469 H         1 <0>         0.1506
     45 H15         2.1149    8.1871   -0.6576 H         1 <0>         0.1539
     46 H16         2.6743    4.5096    1.0371 H         1 <0>         0.0885
     47 H17         3.1440    3.7220   -0.4841 H         1 <0>         0.1315
     48 H18        -1.0609   -2.2970   -2.0142 H         1 <0>         0.3907
     49 N2         -2.3816   -4.2306    0.2482 N.4       1 <0>        -0.5141
     50 H19        -1.9131   -4.5865   -0.5933 H         1 <0>         0.4384
     51 H20        -1.8132   -4.4493    1.0748 H         1 <0>         0.4348
@<TRIPOS>BOND
     1    1    6 ar
     2    1    2 ar
     3    1   32 1
     4    2    3 ar
     5    2   33 1
     6    3    4 ar
     7    3   28 1
     8    4    5 ar
     9    4   34 1
    10    5    6 ar
    11    5   35 1
    12    6    7 1
    13    7   36 1
    14    7   37 1
    15    7   49 1
    16    8    9 1
    17    8   38 1
    18    8   39 1
    19    8   49 1
    20    9   10 1
    21    9   11 1
    22    9   27 1
    23   11   12 1
    24   11   40 1
    25   11   41 1
    26   12   13 1
    27   13   14 2
    28   14   15 1
    29   14   42 1
    30   15   24 1
    31   15   16 2
    32   16   17 1
    33   16   26 1
    34   17   22 ar
    35   17   18 ar
    36   18   19 ar
    37   18   43 1
    38   19   20 ar
    39   19   25 1
    40   20   21 ar
    41   20   44 1
    42   21   22 ar
    43   21   45 1
    44   22   23 1
    45   23   24 1
    46   24   46 1
    47   24   47 1
    48   27   48 1
    49   28   29 1
    50   28   30 1
    51   28   31 1
    52   49   50 1
    53   49   51 1
@<TRIPOS>MOLECULE
ZINC03064029
   64    68     0     0     0
SMALL
USER_CHARGES
(2Z)-2-benzylidene-N-[2-[4-(3-chlorophenyl)piperazin-1-yl]ethyl]-3-oxo-4H-1,4-benzothiazine-6-carboxamide
@<TRIPOS>ATOM
      1 C1         -1.0977    6.4026    0.3631 C.ar      1 <0>        -0.0953
      2 C2         -2.1773    5.7813   -0.2405 C.ar      1 <0>        -0.1206
      3 C3         -2.2107    4.4078   -0.3563 C.ar      1 <0>        -0.0832
      4 C4         -1.1495    3.6420    0.1384 C.ar      1 <0>        -0.0911
      5 C5         -0.0645    4.2774    0.7518 C.ar      1 <0>        -0.0810
      6 C6         -0.0441    5.6521    0.8554 C.ar      1 <0>        -0.1179
      7 C7         -1.1772    2.1765    0.0195 C.2       1 <0>         0.0432
      8 C8         -0.0206    1.4869   -0.1274 C.2       1 <0>        -0.2378
      9 C9          0.0185    0.0078   -0.0950 C.2       1 <0>         0.5785
     10 O1         -0.8215   -0.6041    0.5375 O.2       1 <0>        -0.4987
     11 N1          0.9686   -0.6608   -0.7539 N.am      1 <0>        -0.6719
     12 C10         1.9360   -0.1182   -1.5911 C.ar      1 <0>         0.1673
     13 C11         2.5567   -0.9536   -2.5117 C.ar      1 <0>        -0.0823
     14 C12         3.5322   -0.4517   -3.3734 C.ar      1 <0>        -0.1121
     15 C13         3.8924    0.8983   -3.3174 C.ar      1 <0>        -0.0973
     16 C14         3.2802    1.7292   -2.4063 C.ar      1 <0>        -0.0646
     17 C15         2.3100    1.2293   -1.5469 C.ar      1 <0>        -0.1358
     18 S1          1.5337    2.3042   -0.3773 S.3       1 <0>         0.0600
     19 C16         4.1851   -1.3473   -4.3467 C.2       1 <0>         0.5739
     20 O2          3.8728   -2.5215   -4.3971 O.2       1 <0>        -0.5235
     21 N2          5.1277   -0.8644   -5.1801 N.am      1 <0>        -0.7419
     22 C17         5.7762   -1.7539   -6.1468 C.3       1 <0>         0.0988
     23 C18         6.7983   -0.9610   -6.9637 C.3       1 <0>        -0.0179
     24 N3          7.4485   -1.8530   -7.9331 N.4       1 <0>        -0.3992
     25 C19         8.2629   -2.8682   -7.2507 C.3       1 <0>        -0.0065
     26 C20         8.8575   -3.8233   -8.2883 C.3       1 <0>         0.0243
     27 N4          9.6682   -3.0586   -9.2463 N.pl3     1 <0>        -0.4856
     28 C21         8.8538   -2.0434   -9.9287 C.3       1 <0>         0.0190
     29 C22         8.2592   -1.0883   -8.8910 C.3       1 <0>         0.0019
     30 C23        10.2864   -3.9067  -10.1679 C.ar      1 <0>         0.1004
     31 C24        10.0805   -3.7234  -11.5297 C.ar      1 <0>        -0.1608
     32 C25        10.6971   -4.5601  -12.4389 C.ar      1 <0>        -0.0763
     33 C26        11.5105   -5.5868  -11.9955 C.ar      1 <0>        -0.1183
     34 C27        11.7139   -5.7758  -10.6398 C.ar      1 <0>        -0.0100
     35 C28        11.1036   -4.9384   -9.7248 C.ar      1 <0>        -0.1234
     36 Cl1        12.7359   -7.0660  -10.0877 Cl        1 <0>        -0.0489
     37 H1         -1.0775    7.4789    0.4507 H         1 <0>         0.1296
     38 H2         -2.9958    6.3739   -0.6215 H         1 <0>         0.1312
     39 H3         -3.0539    3.9245   -0.8271 H         1 <0>         0.1311
     40 H4          0.7566    3.6929    1.1398 H         1 <0>         0.1252
     41 H5          0.7946    6.1444    1.3250 H         1 <0>         0.1307
     42 H6         -2.1372    1.6403    0.0499 H         1 <0>         0.1568
     43 H7          1.0375   -1.7546   -0.6596 H         1 <0>         0.4427
     44 H8          2.2823   -1.9970   -2.5606 H         1 <0>         0.1467
     45 H9          4.6472    1.2869   -3.9850 H         1 <0>         0.1324
     46 H10         3.5548    2.7727   -2.3597 H         1 <0>         0.1448
     47 H11         5.4101    0.1977   -5.1344 H         1 <0>         0.4300
     48 H12         6.2868   -2.5677   -5.6111 H         1 <0>         0.0886
     49 H13         5.0176   -2.1781   -6.8210 H         1 <0>         0.0892
     50 H14         6.2877   -0.1472   -7.4994 H         1 <0>         0.1413
     51 H15         7.5569   -0.5368   -6.2895 H         1 <0>         0.1379
     52 H16         9.0753   -2.3750   -6.6969 H         1 <0>         0.1409
     53 H17         7.6318   -3.4338   -6.5494 H         1 <0>         0.1432
     54 H18         9.4906   -4.5668   -7.7819 H         1 <0>         0.1309
     55 H19         8.0445   -4.3369   -8.8223 H         1 <0>         0.0738
     56 H20         9.4849   -1.4778  -10.6300 H         1 <0>         0.1332
     57 H21         8.0414   -2.5366  -10.4825 H         1 <0>         0.0749
     58 H22         7.6254   -0.3447   -9.3963 H         1 <0>         0.1432
     59 H23         9.0716   -0.5747   -8.3560 H         1 <0>         0.1397
     60 H24         9.4419   -2.9247  -11.8770 H         1 <0>         0.1337
     61 H25        10.5401   -4.4154  -13.4976 H         1 <0>         0.1404
     62 H26        11.9877   -6.2426  -12.7086 H         1 <0>         0.1411
     63 H27        11.2624   -5.0860   -8.6668 H         1 <0>         0.1384
     64 H28         6.6587   -2.3727   -8.4953 H         1 <0>         0.4426
@<TRIPOS>BOND
     1    1    6 ar
     2    1    2 ar
     3    1   37 1
     4    2    3 ar
     5    2   38 1
     6    3    4 ar
     7    3   39 1
     8    4    5 ar
     9    4    7 1
    10    5    6 ar
    11    5   40 1
    12    6   41 1
    13    7    8 2
    14    7   42 1
    15    8   18 1
    16    8    9 1
    17    9   10 2
    18    9   11 am
    19   11   12 1
    20   11   43 1
    21   12   17 ar
    22   12   13 ar
    23   13   14 ar
    24   13   44 1
    25   14   15 ar
    26   14   19 1
    27   15   16 ar
    28   15   45 1
    29   16   17 ar
    30   16   46 1
    31   17   18 1
    32   19   20 2
    33   19   21 am
    34   21   22 1
    35   21   47 1
    36   22   23 1
    37   22   48 1
    38   22   49 1
    39   23   24 1
    40   23   50 1
    41   23   51 1
    42   24   29 1
    43   24   25 1
    44   24   64 1
    45   25   26 1
    46   25   52 1
    47   25   53 1
    48   26   27 1
    49   26   54 1
    50   26   55 1
    51   27   28 1
    52   27   30 1
    53   28   29 1
    54   28   56 1
    55   28   57 1
    56   29   58 1
    57   29   59 1
    58   30   35 ar
    59   30   31 ar
    60   31   32 ar
    61   31   60 1
    62   32   33 ar
    63   32   61 1
    64   33   34 ar
    65   33   62 1
    66   34   35 ar
    67   34   36 1
    68   35   63 1
@<TRIPOS>MOLECULE
ZINC39380463
   62    67     0     0     0
SMALL
USER_CHARGES

@<TRIPOS>ATOM
      1 C1         -0.0167    1.3837    0.0096 C.ar      1 <0>        -0.1429
      2 C2          0.0021   -0.0041    0.0020 C.ar      1 <0>        -0.0961
      3 C3         -1.1734   -0.7229    0.0089 C.ar      1 <0>        -0.1292
      4 C4         -2.3924   -0.0535    0.0242 C.ar      1 <0>         0.0950
      5 N1         -3.7041   -0.4723    0.0336 N.pl3     1 <0>        -0.5934
      6 C5         -4.5386    0.6120    0.0473 C.2       1 <0>         0.0646
      7 C6         -3.8178    1.7444    0.0473 C.2       1 <0>        -0.1800
      8 C7         -2.4061    1.3535    0.0323 C.ar      1 <0>        -0.1009
      9 C8         -1.2031    2.0617    0.0303 C.ar      1 <0>        -0.0724
     10 C9         -4.3583    3.1511    0.0598 C.3       1 <0>        -0.0534
     11 C10        -4.4370    3.6799   -1.3738 C.3       1 <0>         0.1097
     12 N2         -4.9624    5.0474   -1.3617 N.am      1 <0>        -0.5832
     13 C11        -6.3170    5.2654   -1.4461 C.2       1 <0>         0.3829
     14 N3         -6.8435    6.3720   -1.0666 N.2       1 <0>        -0.5434
     15 C12        -6.0598    7.4795   -0.5284 C.3       1 <0>         0.1289
     16 H1         -6.0486    7.5037    0.5613 H         1 <0>         0.1560
     17 C13        -4.6437    7.4780   -1.1589 C.3       1 <0>        -0.1104
     18 H2         -3.9800    8.0681   -0.5268 H         1 <0>         0.1458
     19 C14        -4.1194    6.0936   -1.2621 C.2       1 <0>         0.5299
     20 O1         -2.9221    5.9030   -1.2445 O.2       1 <0>        -0.4893
     21 C15        -4.6737    8.0944   -2.5351 C.2       1 <0>        -0.1225
     22 C16        -5.6646    8.9427   -2.7974 C.2       1 <0>        -0.0923
     23 S1         -6.6878    9.0404   -1.2949 S.3       1 <0>        -0.1206
     24 C17        -5.8995    9.6913   -4.0771 C.3       1 <0>        -0.0646
     25 C18        -4.6257    9.6211   -4.9293 C.3       1 <0>         0.0273
     26 H3         -3.8540   10.2510   -4.4870 H         1 <0>         0.1522
     27 C19        -4.1448    8.1668   -4.9658 C.3       1 <0>        -0.1390
     28 C20        -3.6180    7.7684   -3.5873 C.3       1 <0>        -0.0629
     29 N4         -4.9181   10.0828   -6.2929 N.4       1 <0>        -0.5060
     30 C21        -5.2838   11.5051   -6.2604 C.3       1 <0>         0.0431
     31 C22        -5.5838   11.9788   -7.6592 C.ar      1 <0>        -0.1713
     32 C23        -4.6268   12.6760   -8.3731 C.ar      1 <0>        -0.0707
     33 C24        -4.9002   13.1107   -9.6563 C.ar      1 <0>        -0.0897
     34 C25        -6.1313   12.8496  -10.2286 C.ar      1 <0>        -0.0918
     35 C26        -7.0912   12.1520   -9.5169 C.ar      1 <0>         0.0817
     36 C27        -6.8149   11.7109   -8.2313 C.ar      1 <0>         0.0835
     37 F1         -7.7485   11.0248   -7.5365 F         1 <0>        -0.1208
     38 F2         -8.2946   11.8969  -10.0753 F         1 <0>        -0.1125
     39 H4          0.9136    1.9321    0.0037 H         1 <0>         0.1228
     40 H5          0.9476   -0.5258   -0.0098 H         1 <0>         0.1270
     41 H6         -1.1483   -1.8026    0.0022 H         1 <0>         0.1214
     42 H7         -5.6175    0.5639    0.0568 H         1 <0>         0.1708
     43 H8         -3.9934   -1.3981    0.0305 H         1 <0>         0.4186
     44 H9         -1.2101    3.1417    0.0361 H         1 <0>         0.1203
     45 H10        -5.3540    3.1538    0.5032 H         1 <0>         0.0745
     46 H11        -3.6975    3.7891    0.6466 H         1 <0>         0.0738
     47 H12        -3.4412    3.6772   -1.8172 H         1 <0>         0.0970
     48 H13        -5.0978    3.0420   -1.9607 H         1 <0>         0.0938
     49 H14        -6.9528    4.4871   -1.8416 H         1 <0>         0.2000
     50 H15        -6.7280    9.2364   -4.6200 H         1 <0>         0.1095
     51 H16        -6.1332   10.7323   -3.8541 H         1 <0>         0.1103
     52 H17        -4.9756    7.5163   -5.2393 H         1 <0>         0.0939
     53 H18        -3.3475    8.0663   -5.7022 H         1 <0>         0.0997
     54 H19        -2.7051    8.3235   -3.3718 H         1 <0>         0.0995
     55 H20        -3.4073    6.6990   -3.5729 H         1 <0>         0.0971
     56 H21        -4.1015    9.9586   -6.8724 H         1 <0>         0.4326
     57 H22        -6.1660   11.6393   -5.6344 H         1 <0>         0.1445
     58 H23        -4.4561   12.0839   -5.8505 H         1 <0>         0.1528
     59 H24        -3.6648   12.8816   -7.9274 H         1 <0>         0.1533
     60 H25        -4.1514   13.6552  -10.2124 H         1 <0>         0.1569
     61 H26        -6.3440   13.1904  -11.2311 H         1 <0>         0.1613
     62 H27        -5.6844    9.5471   -6.6723 H         1 <0>         0.4275
@<TRIPOS>BOND
     1    1    2 ar
     2    1   39 1
     3    1    9 ar
     4    2    3 ar
     5    2   40 1
     6    3    4 ar
     7    3   41 1
     8    4    5 1
     9    4    8 ar
    10    5   43 1
    11    5    6 1
    12    6    7 2
    13    6   42 1
    14    7    8 1
    15    7   10 1
    16    8    9 ar
    17    9   44 1
    18   10   11 1
    19   10   45 1
    20   10   46 1
    21   11   12 1
    22   11   47 1
    23   11   48 1
    24   12   19 am
    25   12   13 1
    26   13   14 2
    27   13   49 1
    28   14   15 1
    29   15   16 1
    30   15   23 1
    31   15   17 1
    32   17   18 1
    33   17   19 1
    34   17   21 1
    35   19   20 2
    36   21   28 1
    37   21   22 2
    38   22   23 1
    39   22   24 1
    40   24   25 1
    41   24   50 1
    42   24   51 1
    43   25   26 1
    44   25   27 1
    45   25   29 1
    46   27   28 1
    47   27   52 1
    48   27   53 1
    49   28   54 1
    50   28   55 1
    51   29   30 1
    52   29   56 1
    53   29   62 1
    54   30   31 1
    55   30   57 1
    56   30   58 1
    57   31   36 ar
    58   31   32 ar
    59   32   33 ar
    60   32   59 1
    61   33   34 ar
    62   33   60 1
    63   34   35 ar
    64   34   61 1
    65   35   36 ar
    66   35   38 1
    67   36   37 1
@<TRIPOS>MOLECULE
ZINC39688342
   65    69     0     0     0
SMALL
USER_CHARGES

@<TRIPOS>ATOM
      1 C1         -0.0195    1.3579   -0.0404 C.ar      1 <0>        -0.0999
      2 C2          1.1666    2.0909   -0.0510 C.ar      1 <0>        -0.0941
      3 C3          2.3761    1.4693   -0.0570 C.ar      1 <0>        -0.0911
      4 C4          2.4385    0.0624   -0.0520 C.ar      1 <0>         0.1220
      5 C5          1.2292   -0.6810   -0.0407 C.ar      1 <0>        -0.0818
      6 C6         -0.0007   -0.0032   -0.0353 C.ar      1 <0>        -0.0996
      7 C7          1.2889   -2.0869   -0.0356 C.ar      1 <0>        -0.0512
      8 C8          2.5180   -2.6814   -0.0418 C.ar      1 <0>        -0.1282
      9 C9          3.6755   -1.8898   -0.0529 C.ar      1 <0>         0.1103
     10 N1          3.6100   -0.5724   -0.0572 N.ar      1 <0>        -0.4415
     11 C10         5.0037   -2.5489   -0.0591 C.2       1 <0>         0.6002
     12 O1          5.0825   -3.7577    0.0346 O.2       1 <0>        -0.5218
     13 N2          6.1236   -1.8071   -0.1686 N.am      1 <0>        -0.6056
     14 C11         6.2376   -0.3296   -0.1728 C.3       1 <0>         0.1026
     15 C12         7.5104   -0.0339    0.6520 C.3       1 <0>        -0.1158
     16 H1          7.2504    0.1724    1.6902 H         1 <0>         0.1103
     17 C13         8.3482   -1.3199    0.5551 C.3       1 <0>        -0.0726
     18 C14         7.5203   -2.2850   -0.3057 C.3       1 <0>         0.1068
     19 C15         8.5655   -1.9148    1.9431 C.3       1 <0>        -0.1342
     20 C16         9.4486   -3.1604    1.8269 C.3       1 <0>        -0.0111
     21 N3         10.7353   -2.7953    1.2220 N.4       1 <0>        -0.5043
     22 C17        10.5254   -2.3106   -0.1475 C.3       1 <0>        -0.0073
     23 C18         9.6876   -1.0292   -0.1149 C.3       1 <0>        -0.1474
     24 C19         8.2613    1.1302    0.0588 C.2       1 <0>         0.5220
     25 O2          8.1352    1.3973   -1.1175 O.2       1 <0>        -0.5180
     26 N4          9.0731    1.8747    0.8355 N.am      1 <0>        -0.7272
     27 C20         9.8031    3.0064    0.2589 C.3       1 <0>         0.1216
     28 C21        10.6455    3.6770    1.3459 C.3       1 <0>         0.0419
     29 O3         11.6519    2.7683    1.7971 O.3       1 <0>        -0.3168
     30 C22        12.4923    3.2113    2.7695 C.ar      1 <0>         0.1133
     31 C23        12.3470    4.4919    3.2822 C.ar      1 <0>        -0.1770
     32 C24        13.2017    4.9409    4.2703 C.ar      1 <0>        -0.1095
     33 C25        14.2034    4.1133    4.7485 C.ar      1 <0>         0.0695
     34 C26        14.3500    2.8349    4.2373 C.ar      1 <0>        -0.1139
     35 C27        13.4924    2.3811    3.2538 C.ar      1 <0>        -0.1238
     36 F1         15.0389    4.5537    5.7145 F         1 <0>        -0.1349
     37 H2         -0.9663    1.8774   -0.0316 H         1 <0>         0.1350
     38 H3          1.1241    3.1701   -0.0548 H         1 <0>         0.1363
     39 H4          3.2853    2.0522   -0.0659 H         1 <0>         0.1376
     40 H5         -0.9267   -0.5589   -0.0272 H         1 <0>         0.1375
     41 H6          0.3863   -2.6799   -0.0267 H         1 <0>         0.1511
     42 H7          2.5985   -3.7584   -0.0378 H         1 <0>         0.1515
     43 H8          6.3508    0.0400   -1.1919 H         1 <0>         0.0961
     44 H9          5.3650    0.1202    0.3008 H         1 <0>         0.1308
     45 H10         7.6125   -3.3038    0.0707 H         1 <0>         0.0902
     46 H11         7.8400   -2.2326   -1.3464 H         1 <0>         0.0859
     47 H12         9.0555   -1.1796    2.5815 H         1 <0>         0.0963
     48 H13         7.6036   -2.1898    2.3759 H         1 <0>         0.1177
     49 H14         9.6194   -3.5784    2.8190 H         1 <0>         0.1395
     50 H15         8.9507   -3.9015    1.2016 H         1 <0>         0.1343
     51 H16        11.1698   -2.0691    1.7715 H         1 <0>         0.4278
     52 H17        11.4899   -2.1021   -0.6107 H         1 <0>         0.1391
     53 H18        10.0021   -3.0720   -0.7260 H         1 <0>         0.1329
     54 H19         9.5169   -0.6800   -1.1332 H         1 <0>         0.1241
     55 H20        10.2179   -0.2621    0.4494 H         1 <0>         0.1008
     56 H21         9.1740    1.6611    1.7763 H         1 <0>         0.4031
     57 H22        10.4556    2.6498   -0.5381 H         1 <0>         0.0846
     58 H23         9.0937    3.7273   -0.1474 H         1 <0>         0.0973
     59 H24        11.1188    4.5707    0.9392 H         1 <0>         0.0872
     60 H25        10.0047    3.9542    2.1829 H         1 <0>         0.0750
     61 H26        11.5661    5.1379    2.9088 H         1 <0>         0.1390
     62 H27        13.0888    5.9379    4.6697 H         1 <0>         0.1426
     63 H28        15.1320    2.1906    4.6110 H         1 <0>         0.1446
     64 H29        13.6038    1.3822    2.8587 H         1 <0>         0.1362
     65 H30        11.3378   -3.6045    1.2023 H         1 <0>         0.4338
@<TRIPOS>BOND
     1    1    6 ar
     2    1    2 ar
     3    1   37 1
     4    2    3 ar
     5    2   38 1
     6    3    4 ar
     7    3   39 1
     8    4   10 ar
     9    4    5 ar
    10    5    6 ar
    11    5    7 ar
    12    6   40 1
    13    7    8 ar
    14    7   41 1
    15    8    9 ar
    16    8   42 1
    17    9   10 ar
    18    9   11 1
    19   11   12 2
    20   11   13 am
    21   13   18 1
    22   13   14 1
    23   14   15 1
    24   14   43 1
    25   14   44 1
    26   15   16 1
    27   15   17 1
    28   15   24 1
    29   17   23 1
    30   17   18 1
    31   17   19 1
    32   18   45 1
    33   18   46 1
    34   19   20 1
    35   19   47 1
    36   19   48 1
    37   20   21 1
    38   20   49 1
    39   20   50 1
    40   21   22 1
    41   21   51 1
    42   21   65 1
    43   22   23 1
    44   22   52 1
    45   22   53 1
    46   23   54 1
    47   23   55 1
    48   24   25 2
    49   24   26 am
    50   26   27 1
    51   26   56 1
    52   27   28 1
    53   27   57 1
    54   27   58 1
    55   28   29 1
    56   28   59 1
    57   28   60 1
    58   29   30 1
    59   30   35 ar
    60   30   31 ar
    61   31   32 ar
    62   31   61 1
    63   32   33 ar
    64   32   62 1
    65   33   34 ar
    66   33   36 1
    67   34   35 ar
    68   34   63 1
    69   35   64 1
@<TRIPOS>MOLECULE
ZINC28707558
   67    72     0     0     0
SMALL
USER_CHARGES

@<TRIPOS>ATOM
      1 C1         -0.0168    1.3900    0.0097 C.ar      1 <0>        -0.0572
      2 C2          1.1685    2.0941    0.0021 C.ar      1 <0>        -0.1487
      3 C3          2.3803    1.4163   -0.0135 C.ar      1 <0>         0.1265
      4 C4          2.4024    0.0279   -0.0217 C.ar      1 <0>        -0.1505
      5 C5          1.2204   -0.6818   -0.0142 C.ar      1 <0>        -0.0841
      6 C6          0.0021   -0.0041    0.0020 C.ar      1 <0>        -0.0722
      7 C7         -1.2709   -0.7643    0.0106 C.ar      1 <0>         0.1825
      8 C8         -1.2438   -2.1579    0.0086 C.ar      1 <0>        -0.1673
      9 C9         -2.4399   -2.8535    0.0166 C.ar      1 <0>        -0.0428
     10 C10        -3.6259   -2.1323    0.0265 C.ar      1 <0>        -0.1541
     11 C11        -3.5794   -0.7509    0.0279 C.ar      1 <0>         0.1158
     12 N1         -2.4265   -0.1126    0.0256 N.ar      1 <0>        -0.4727
     13 C12        -2.4547   -4.3604    0.0143 C.3       1 <0>         0.0968
     14 N2         -2.4488   -4.8523    1.3985 N.3       1 <0>        -0.5303
     15 C13        -1.1946   -4.4985    2.0778 C.3       1 <0>         0.0252
     16 C14        -1.2359   -5.0392    3.5168 C.3       1 <0>         0.0343
     17 H1         -0.3888   -4.6978    4.1118 H         1 <0>         0.1557
     18 C15        -2.5937   -4.6275    4.1332 C.3       1 <0>        -0.1235
     19 C16        -3.5645   -5.7591    3.7348 C.3       1 <0>        -0.1223
     20 C17        -2.7012   -6.7475    2.9156 C.3       1 <0>         0.0380
     21 H2         -3.0251   -7.7812    3.0364 H         1 <0>         0.1527
     22 C18        -2.7009   -6.2994    1.4442 C.3       1 <0>         0.0306
     23 N3         -1.3016   -6.5233    3.4208 N.4       1 <0>        -0.4037
     24 C19        -1.1232   -7.1377    4.7431 C.3       1 <0>         0.0482
     25 C20        -1.0717   -8.6368    4.5976 C.ar      1 <0>        -0.0992
     26 C21        -2.2322   -9.3959    4.6581 C.ar      1 <0>        -0.1648
     27 C22        -2.1523  -10.7690    4.5206 C.ar      1 <0>         0.1270
     28 N4         -0.9913  -11.3639    4.3339 N.ar      1 <0>        -0.4585
     29 C23         0.1408  -10.6749    4.2701 C.ar      1 <0>         0.1996
     30 C24         0.1330   -9.2867    4.3950 C.ar      1 <0>        -0.1505
     31 C25         1.4241  -11.3870    4.0586 C.ar      1 <0>        -0.0868
     32 C26         2.6185  -10.6706    3.9963 C.ar      1 <0>        -0.0786
     33 C27         3.8102  -11.3356    3.8000 C.ar      1 <0>        -0.1504
     34 C28         3.8216  -12.7175    3.6645 C.ar      1 <0>         0.1365
     35 C29         2.6336  -13.4339    3.7262 C.ar      1 <0>        -0.1498
     36 C30         1.4394  -12.7750    3.9276 C.ar      1 <0>        -0.0518
     37 O1          4.9973  -13.3699    3.4708 O.3       1 <0>        -0.4970
     38 O2          3.5466    2.1128   -0.0214 O.3       1 <0>        -0.4973
     39 H3         -0.9590    1.9177    0.0260 H         1 <0>         0.1417
     40 H4          1.1545    3.1740    0.0081 H         1 <0>         0.1366
     41 H5          3.3464   -0.4966   -0.0342 H         1 <0>         0.1340
     42 H6          1.2382   -1.7617   -0.0212 H         1 <0>         0.1256
     43 H7         -0.3025   -2.6873    0.0005 H         1 <0>         0.1323
     44 H8         -4.5760   -2.6458    0.0326 H         1 <0>         0.1389
     45 H9         -4.5005   -0.1869    0.0355 H         1 <0>         0.1632
     46 H10        -3.3521   -4.7142   -0.4932 H         1 <0>         0.1036
     47 H11        -1.5723   -4.7316   -0.5069 H         1 <0>         0.0600
     48 H12        -0.3535   -4.9424    1.5453 H         1 <0>         0.0610
     49 H13        -1.0842   -3.4143    2.0985 H         1 <0>         0.1268
     50 H14        -2.5135   -4.5604    5.2181 H         1 <0>         0.0929
     51 H15        -2.9272   -3.6770    3.7167 H         1 <0>         0.1175
     52 H16        -3.9621   -6.2489    4.6237 H         1 <0>         0.0923
     53 H17        -4.3756   -5.3655    3.1222 H         1 <0>         0.1199
     54 H18        -3.6765   -6.5138    1.0080 H         1 <0>         0.1263
     55 H19        -1.9260   -6.8226    0.8839 H         1 <0>         0.0641
     56 H20        -0.1923   -6.7834    5.1858 H         1 <0>         0.1390
     57 H21        -1.9591   -6.8637    5.3868 H         1 <0>         0.1420
     58 H22        -3.1886   -8.9182    4.8114 H         1 <0>         0.1453
     59 H23        -3.0535  -11.3623    4.5672 H         1 <0>         0.1719
     60 H24         1.0547   -8.7266    4.3386 H         1 <0>         0.1450
     61 H25         2.6102   -9.5957    4.1012 H         1 <0>         0.1274
     62 H26         4.7357  -10.7811    3.7512 H         1 <0>         0.1375
     63 H27         2.6456  -14.5086    3.6202 H         1 <0>         0.1391
     64 H28         0.5162  -13.3331    3.9795 H         1 <0>         0.1425
     65 H29         5.4346  -13.6437    4.2887 H         1 <0>         0.4005
     66 H30         3.8930    2.3097    0.8597 H         1 <0>         0.3965
     67 H31        -0.6137   -6.8694    2.7689 H         1 <0>         0.4214
@<TRIPOS>BOND
     1    1    6 ar
     2    1    2 ar
     3    1   39 1
     4    2    3 ar
     5    2   40 1
     6    3    4 ar
     7    3   38 1
     8    4    5 ar
     9    4   41 1
    10    5    6 ar
    11    5   42 1
    12    6    7 1
    13    7   12 ar
    14    7    8 ar
    15    8    9 ar
    16    8   43 1
    17    9   10 ar
    18    9   13 1
    19   10   11 ar
    20   10   44 1
    21   11   12 ar
    22   11   45 1
    23   13   14 1
    24   13   46 1
    25   13   47 1
    26   14   22 1
    27   14   15 1
    28   15   16 1
    29   15   48 1
    30   15   49 1
    31   16   17 1
    32   16   23 1
    33   16   18 1
    34   18   19 1
    35   18   50 1
    36   18   51 1
    37   19   20 1
    38   19   52 1
    39   19   53 1
    40   20   21 1
    41   20   22 1
    42   20   23 1
    43   22   54 1
    44   22   55 1
    45   23   24 1
    46   23   67 1
    47   24   25 1
    48   24   56 1
    49   24   57 1
    50   25   30 ar
    51   25   26 ar
    52   26   27 ar
    53   26   58 1
    54   27   28 ar
    55   27   59 1
    56   28   29 ar
    57   29   30 ar
    58   29   31 1
    59   30   60 1
    60   31   36 ar
    61   31   32 ar
    62   32   33 ar
    63   32   61 1
    64   33   34 ar
    65   33   62 1
    66   34   35 ar
    67   34   37 1
    68   35   36 ar
    69   35   63 1
    70   36   64 1
    71   37   65 1
    72   38   66 1
@<TRIPOS>MOLECULE
ZINC10129701
   70    73     0     0     0
SMALL
USER_CHARGES
N'-[2-(3,4-dihydro-1H-isoquinolin-2-yl)-2-(4-dimethylaminophenyl)-ethyl]-N-(2,3-dimethylphenyl)-oxamide
@<TRIPOS>ATOM
      1 C1          6.5366    8.4189   -5.7969 C.3       1 <0>        -0.1210
      2 C2          5.3524    9.1147   -5.1768 C.ar      1 <0>        -0.0638
      3 C3          4.9548   10.3532   -5.6470 C.ar      1 <0>        -0.1237
      4 C4          3.8688   10.9951   -5.0809 C.ar      1 <0>        -0.1004
      5 C5          3.1773   10.4012   -4.0433 C.ar      1 <0>        -0.1300
      6 C6          3.5739    9.1574   -3.5686 C.ar      1 <0>         0.1338
      7 C7          4.6653    8.5149   -4.1401 C.ar      1 <0>        -0.1066
      8 C8          5.0987    7.1651   -3.6291 C.3       1 <0>        -0.1230
      9 N1          2.8769    8.5538   -2.5188 N.am      1 <0>        -0.6311
     10 C9          1.5909    8.8833   -2.2862 C.2       1 <0>         0.5059
     11 O1          1.0099    9.6328   -3.0438 O.2       1 <0>        -0.4925
     12 C10         0.8807    8.3263   -1.0963 C.2       1 <0>         0.5198
     13 O2          1.4616    7.5769   -0.3388 O.2       1 <0>        -0.5017
     14 N2         -0.4053    8.6558   -0.8637 N.am      1 <0>        -0.6959
     15 C11        -1.1020    8.1094    0.3035 C.3       1 <0>         0.1026
     16 C12        -2.5705    8.5370    0.2673 C.3       1 <0>         0.0827
     17 H1         -3.0153    8.2296   -0.6792 H         1 <0>         0.1497
     18 C13        -2.6609   10.0353    0.4016 C.ar      1 <0>        -0.2216
     19 C14        -2.5611   10.6233    1.6492 C.ar      1 <0>        -0.0627
     20 C15        -2.6379   11.9965    1.7752 C.ar      1 <0>        -0.1888
     21 C16        -2.8269   12.7863    0.6482 C.ar      1 <0>         0.2487
     22 C17        -2.9324   12.1919   -0.6029 C.ar      1 <0>        -0.1879
     23 C18        -2.8491   10.8186   -0.7224 C.ar      1 <0>        -0.0344
     24 N3         -2.9111   14.1749    0.7727 N.pl3     1 <0>        -0.6227
     25 C19        -3.2314   14.9971   -0.3967 C.3       1 <0>         0.0814
     26 C20        -2.6792   14.8092    2.0728 C.3       1 <0>         0.0791
     27 C21        -3.1858    6.4355    1.3056 C.3       1 <0>        -0.0107
     28 C22        -3.6243    5.8506    2.6484 C.3       1 <0>        -0.1055
     29 C23        -4.9570    6.4284    3.0503 C.ar      1 <0>        -0.0918
     30 C24        -5.6876    5.7826    4.0363 C.ar      1 <0>        -0.1044
     31 C25        -6.9089    6.2832    4.4401 C.ar      1 <0>        -0.0933
     32 C26        -7.4067    7.4344    3.8582 C.ar      1 <0>        -0.1048
     33 C27        -6.6814    8.0766    2.8752 C.ar      1 <0>        -0.0928
     34 C28        -5.4542    7.5742    2.4673 C.ar      1 <0>        -0.1307
     35 C29        -4.7020    8.3077    1.3881 C.3       1 <0>         0.0540
     36 H2          7.4454    8.7084   -5.2693 H         1 <0>         0.0755
     37 H3          6.4026    7.3396   -5.7247 H         1 <0>         0.0724
     38 H4          6.6183    8.7055   -6.8454 H         1 <0>         0.0707
     39 H5          5.4940   10.8201   -6.4580 H         1 <0>         0.1275
     40 H6          3.5608   11.9620   -5.4507 H         1 <0>         0.1289
     41 H7          2.3319   10.9051   -3.5986 H         1 <0>         0.1436
     42 H8          5.8267    7.2963   -2.8285 H         1 <0>         0.0760
     43 H9          4.2319    6.6257   -3.2472 H         1 <0>         0.0612
     44 H10         5.5510    6.5969   -4.4420 H         1 <0>         0.0812
     45 H11         3.3185    7.8976   -1.9573 H         1 <0>         0.4234
     46 H12        -0.8696    9.2548   -1.4692 H         1 <0>         0.4196
     47 H13        -1.0399    7.0213    0.2872 H         1 <0>         0.0989
     48 H14        -0.6361    8.4863    1.2140 H         1 <0>         0.0956
     49 H15        -2.4189   10.0084    2.5255 H         1 <0>         0.1156
     50 H16        -2.5554   12.4554    2.7493 H         1 <0>         0.1358
     51 H17        -3.0791   12.8031   -1.4812 H         1 <0>         0.1371
     52 H18        -2.9315   10.3558   -1.6948 H         1 <0>         0.1322
     53 H19        -4.3120   15.1208   -0.4690 H         1 <0>         0.0595
     54 H20        -2.7599   15.9745   -0.2939 H         1 <0>         0.0770
     55 H21        -2.8607   14.5079   -1.2974 H         1 <0>         0.0746
     56 H22        -2.3620   14.0554    2.7934 H         1 <0>         0.0793
     57 H23        -1.9020   15.5670    1.9738 H         1 <0>         0.0680
     58 H24        -3.6010   15.2771    2.4184 H         1 <0>         0.0634
     59 H25        -3.8331    6.0592    0.5135 H         1 <0>         0.1380
     60 H26        -2.1525    6.1534    1.1031 H         1 <0>         0.1397
     61 H27        -2.8812    6.0920    3.4083 H         1 <0>         0.1041
     62 H28        -3.7116    4.7678    2.5586 H         1 <0>         0.1248
     63 H29        -5.2988    4.8833    4.4908 H         1 <0>         0.1347
     64 H30        -7.4744    5.7769    5.2084 H         1 <0>         0.1361
     65 H31        -8.3610    7.8305    4.1725 H         1 <0>         0.1365
     66 H32        -7.0713    8.9755    2.4209 H         1 <0>         0.1334
     67 H33        -4.7656    9.3804    1.5708 H         1 <0>         0.1403
     68 H34        -5.1494    8.0805    0.4205 H         1 <0>         0.1391
     69 N4         -3.2853    7.9060    1.3998 N.4       1 <0>        -0.3862
     70 H35        -2.8561    8.2154    2.2797 H         1 <0>         0.4264
@<TRIPOS>BOND
     1    1    2 1
     2    1   36 1
     3    1   37 1
     4    1   38 1
     5    2    7 ar
     6    2    3 ar
     7    3    4 ar
     8    3   39 1
     9    4    5 ar
    10    4   40 1
    11    5    6 ar
    12    5   41 1
    13    6    7 ar
    14    6    9 1
    15    7    8 1
    16    8   42 1
    17    8   43 1
    18    8   44 1
    19    9   10 am
    20    9   45 1
    21   10   11 2
    22   10   12 1
    23   12   13 2
    24   12   14 am
    25   14   15 1
    26   14   46 1
    27   15   16 1
    28   15   47 1
    29   15   48 1
    30   16   17 1
    31   16   18 1
    32   16   69 1
    33   18   23 ar
    34   18   19 ar
    35   19   20 ar
    36   19   49 1
    37   20   21 ar
    38   20   50 1
    39   21   22 ar
    40   21   24 1
    41   22   23 ar
    42   22   51 1
    43   23   52 1
    44   24   25 1
    45   24   26 1
    46   25   53 1
    47   25   54 1
    48   25   55 1
    49   26   56 1
    50   26   57 1
    51   26   58 1
    52   27   28 1
    53   27   59 1
    54   27   60 1
    55   27   69 1
    56   28   29 1
    57   28   61 1
    58   28   62 1
    59   29   34 ar
    60   29   30 ar
    61   30   31 ar
    62   30   63 1
    63   31   32 ar
    64   31   64 1
    65   32   33 ar
    66   32   65 1
    67   33   34 ar
    68   33   66 1
    69   34   35 1
    70   35   67 1
    71   35   68 1
    72   35   69 1
    73   69   70 1
@<TRIPOS>MOLECULE
ZINC32983625
   62    66     0     0     0
SMALL
USER_CHARGES
(2Z)-2-[(4-chlorophenyl)methylene]-N-[3-(3,4-dihydro-1H-isoquinolin-2-yl)propyl]-3-oxo-4H-1,4-benzoxazine-6-carboxamide
@<TRIPOS>ATOM
      1 C1          8.9821   13.0028    6.5515 C.ar      1 <0>        -0.0924
      2 C2          8.6958   12.3781    5.3518 C.ar      1 <0>        -0.1049
      3 C3          7.3931   12.0386    5.0475 C.ar      1 <0>        -0.0944
      4 C4          6.3681   12.3202    5.9390 C.ar      1 <0>        -0.1333
      5 C5          6.6546   12.9406    7.1360 C.ar      1 <0>        -0.0910
      6 C6          7.9636   13.2832    7.4400 C.ar      1 <0>        -0.1053
      7 C7          5.5762   13.2619    8.1387 C.3       1 <0>        -0.1072
      8 C8          4.2037   13.1966    7.4681 C.3       1 <0>        -0.0008
      9 N1          4.0976   11.9196    6.7443 N.4       1 <0>        -0.3978
     10 C9          4.9623   11.9343    5.5602 C.3       1 <0>         0.0454
     11 C10         2.7039   11.6381    6.3750 C.3       1 <0>        -0.0033
     12 C11         2.6610   10.4448    5.4183 C.3       1 <0>        -0.1657
     13 C12         1.2094   10.1515    5.0337 C.3       1 <0>         0.1256
     14 N2          1.1683    9.0089    4.1177 N.am      1 <0>        -0.7431
     15 C13        -0.0135    8.5679    3.6431 C.2       1 <0>         0.5694
     16 O1         -1.0456    9.1183    3.9752 O.2       1 <0>        -0.5275
     17 C14        -0.0550    7.4167    2.7202 C.ar      1 <0>        -0.1290
     18 C15         1.1305    6.7835    2.3379 C.ar      1 <0>        -0.0777
     19 C16         1.0920    5.7092    1.4757 C.ar      1 <0>        -0.1108
     20 C17        -0.1235    5.2533    0.9846 C.ar      1 <0>         0.0926
     21 C18        -1.3131    5.8801    1.3625 C.ar      1 <0>         0.1075
     22 C19        -1.2795    6.9591    2.2274 C.ar      1 <0>        -0.0647
     23 N3         -2.5404    5.4182    0.8677 N.am      1 <0>        -0.6722
     24 C20        -2.5836    4.2120    0.2521 C.2       1 <0>         0.5504
     25 O2         -3.6272    3.7619   -0.1825 O.2       1 <0>        -0.4866
     26 C21        -1.3152    3.4634    0.1291 C.2       1 <0>        -0.0219
     27 C22        -1.2989    2.1162    0.0197 C.2       1 <0>        -0.0251
     28 C23        -0.0171    1.3940    0.0160 C.ar      1 <0>        -0.0769
     29 C24         1.1768    2.0802    0.2606 C.ar      1 <0>        -0.0929
     30 C25         2.3746    1.3979    0.2504 C.ar      1 <0>        -0.1175
     31 C26         2.3976    0.0360   -0.0022 C.ar      1 <0>        -0.0201
     32 C27         1.2190   -0.6503   -0.2452 C.ar      1 <0>        -0.1150
     33 C28         0.0138    0.0188   -0.2377 C.ar      1 <0>        -0.0761
     34 Cl1         3.9107   -0.8150   -0.0136 Cl        1 <0>        -0.0621
     35 O3         -0.1581    4.1932    0.1366 O.3       1 <0>        -0.2194
     36 H1         10.0002   13.2706    6.7930 H         1 <0>         0.1365
     37 H2          9.4898   12.1565    4.6541 H         1 <0>         0.1371
     38 H3          7.1704   11.5506    4.1101 H         1 <0>         0.1334
     39 H4          8.1874   13.7710    8.3772 H         1 <0>         0.1345
     40 H5          5.6121   12.5332    8.9620 H         1 <0>         0.1046
     41 H6          5.7365   14.2743    8.5379 H         1 <0>         0.1237
     42 H7          3.4176   13.2598    8.2349 H         1 <0>         0.1394
     43 H8          4.0987   14.0362    6.7653 H         1 <0>         0.1311
     44 H9          4.5650   12.6611    4.8364 H         1 <0>         0.1350
     45 H10         4.9665   10.9315    5.1081 H         1 <0>         0.1401
     46 H11         2.1250   11.4033    7.2804 H         1 <0>         0.1397
     47 H12         2.2702   12.5200    5.8809 H         1 <0>         0.1331
     48 H13         3.2399   10.6797    4.5130 H         1 <0>         0.0968
     49 H14         3.0948    9.5629    5.9124 H         1 <0>         0.0972
     50 H15         0.6305    9.9167    5.9391 H         1 <0>         0.0789
     51 H16         0.7756   11.0334    4.5396 H         1 <0>         0.0784
     52 H17         2.1020    8.5109    3.8173 H         1 <0>         0.4226
     53 H18         2.0777    7.1359    2.7189 H         1 <0>         0.1367
     54 H19         2.0094    5.2214    1.1811 H         1 <0>         0.1502
     55 H20        -2.1976    7.4462    2.5213 H         1 <0>         0.1505
     56 H21        -3.4459    6.0321    0.9826 H         1 <0>         0.4518
     57 H22        -2.2439    1.5599   -0.0666 H         1 <0>         0.1697
     58 H23         1.1604    3.1421    0.4569 H         1 <0>         0.1589
     59 H24         3.2973    1.9265    0.4390 H         1 <0>         0.1364
     60 H25         1.2444   -1.7122   -0.4406 H         1 <0>         0.1404
     61 H26        -0.9043   -0.5175   -0.4270 H         1 <0>         0.1408
     62 H27         4.4362   11.1108    7.4085 H         1 <0>         0.4462
@<TRIPOS>BOND
     1    1    6 ar
     2    1    2 ar
     3    1   36 1
     4    2    3 ar
     5    2   37 1
     6    3    4 ar
     7    3   38 1
     8    4   10 1
     9    4    5 ar
    10    5    6 ar
    11    5    7 1
    12    6   39 1
    13    7    8 1
    14    7   40 1
    15    7   41 1
    16    8    9 1
    17    8   42 1
    18    8   43 1
    19    9   10 1
    20    9   11 1
    21    9   62 1
    22   10   44 1
    23   10   45 1
    24   11   12 1
    25   11   46 1
    26   11   47 1
    27   12   13 1
    28   12   48 1
    29   12   49 1
    30   13   14 1
    31   13   50 1
    32   13   51 1
    33   14   15 am
    34   14   52 1
    35   15   16 2
    36   15   17 1
    37   17   22 ar
    38   17   18 ar
    39   18   19 ar
    40   18   53 1
    41   19   20 ar
    42   19   54 1
    43   20   35 1
    44   20   21 ar
    45   21   22 ar
    46   21   23 1
    47   22   55 1
    48   23   24 am
    49   23   56 1
    50   24   25 2
    51   24   26 1
    52   26   27 2
    53   26   35 1
    54   27   28 1
    55   27   57 1
    56   28   33 ar
    57   28   29 ar
    58   29   30 ar
    59   29   58 1
    60   30   31 ar
    61   30   59 1
    62   31   32 ar
    63   31   34 1
    64   32   33 ar
    65   32   60 1
    66   33   61 1
@<TRIPOS>MOLECULE
ZINC39677297
   59    62     0     0     0
SMALL
USER_CHARGES

@<TRIPOS>ATOM
      1 C1          1.9843    3.4322    4.4980 C.3       1 <0>        -0.0999
      2 C2          1.6250    3.4656    3.0349 C.2       1 <0>        -0.0938
      3 C3          1.9842    4.5444    2.2488 C.2       1 <0>        -0.1677
      4 C4          1.6455    4.5431    0.9364 C.2       1 <0>        -0.1501
      5 S1          0.7923    2.9831    0.7767 S.3       1 <0>         0.0641
      6 C5          0.9496    2.4357    2.4687 C.2       1 <0>        -0.1948
      7 C6          0.4578    1.1604    3.1032 C.3       1 <0>         0.2093
      8 N1         -0.8989    1.3625    3.6177 N.am      1 <0>        -0.7263
      9 C7         -1.5448    0.3508    4.2307 C.2       1 <0>         0.5130
     10 O1         -1.0028   -0.7269    4.3564 O.2       1 <0>        -0.5082
     11 C8         -2.9404    0.5587    4.7600 C.3       1 <0>        -0.1135
     12 H1         -3.4512    1.3329    4.1876 H         1 <0>         0.1187
     13 C9         -3.7381   -0.7636    4.7078 C.3       1 <0>         0.1228
     14 N2         -3.5807   -1.3494    6.0599 N.am      1 <0>        -0.6081
     15 C10        -3.6640   -0.1876    6.9770 C.3       1 <0>         0.0891
     16 C11        -2.8972    0.9353    6.2505 C.3       1 <0>        -0.0723
     17 C12        -3.5864    2.2775    6.4766 C.3       1 <0>        -0.1352
     18 C13        -3.4794    2.6584    7.9558 C.3       1 <0>        -0.0099
     19 N3         -2.0653    2.7408    8.3409 N.4       1 <0>        -0.5053
     20 C14        -1.4329    1.4227    8.2087 C.3       1 <0>        -0.0092
     21 C15        -1.4533    0.9895    6.7401 C.3       1 <0>        -0.1496
     22 C16        -3.4026   -2.6457    6.3829 C.2       1 <0>         0.6024
     23 O2         -3.2403   -3.4738    5.5071 O.2       1 <0>        -0.4863
     24 C17        -3.4044   -3.0597    7.7973 C.2       1 <0>        -0.1568
     25 C18        -3.7282   -2.2286    8.9661 C.2       1 <0>        -0.2185
     26 C19        -3.5967   -3.0286   10.0353 C.2       1 <0>         0.0450
     27 O3         -3.2276   -4.2524    9.6260 O.3       1 <0>        -0.1395
     28 C20        -3.1119   -4.2956    8.2952 C.2       1 <0>        -0.0289
     29 C21        -2.7217   -5.5035    7.4830 C.3       1 <0>         0.5504
     30 F1         -1.3311   -5.5357    7.3336 F         1 <0>        -0.1601
     31 F2         -3.1473   -6.6637    8.1387 F         1 <0>        -0.1647
     32 F3         -3.3246   -5.4325    6.2225 F         1 <0>        -0.1246
     33 C22        -3.8266   -2.6184   11.4670 C.3       1 <0>        -0.0858
     34 H2          2.9618    2.9659    4.6215 H         1 <0>         0.0746
     35 H3          2.0152    4.4496    4.8879 H         1 <0>         0.0677
     36 H4          1.2359    2.8568    5.0429 H         1 <0>         0.0577
     37 H5          2.5262    5.3761    2.6742 H         1 <0>         0.1375
     38 H6          1.8408    5.2917    0.1828 H         1 <0>         0.1910
     39 H7          0.4493    0.3641    2.3589 H         1 <0>         0.0870
     40 H8          1.1201    0.8838    3.9236 H         1 <0>         0.0910
     41 H9         -1.3323    2.2244    3.5173 H         1 <0>         0.4016
     42 H10        -4.7894   -0.5652    4.4996 H         1 <0>         0.0916
     43 H11        -3.3197   -1.4303    3.9537 H         1 <0>         0.1042
     44 H12        -4.7036    0.1014    7.1316 H         1 <0>         0.0899
     45 H13        -3.1871   -0.4196    7.9293 H         1 <0>         0.0944
     46 H14        -3.1030    3.0418    5.8681 H         1 <0>         0.0991
     47 H15        -4.6368    2.1990    6.1961 H         1 <0>         0.1236
     48 H16        -3.9566    3.6251    8.1173 H         1 <0>         0.1414
     49 H17        -3.9775    1.9021    8.5625 H         1 <0>         0.1318
     50 H18        -1.5928    3.4007    7.7415 H         1 <0>         0.4289
     51 H19        -0.4014    1.4784    8.5566 H         1 <0>         0.1399
     52 H20        -1.9797    0.6958    8.8093 H         1 <0>         0.1313
     53 H21        -0.9997    0.0029    6.6454 H         1 <0>         0.1255
     54 H22        -0.8927    1.7073    6.1413 H         1 <0>         0.0974
     55 H23        -4.0133   -1.1869    8.9645 H         1 <0>         0.1699
     56 H24        -4.8701   -2.7904   11.7311 H         1 <0>         0.0976
     57 H25        -3.1843   -3.2078   12.1214 H         1 <0>         0.0904
     58 H26        -3.5918   -1.5605   11.5841 H         1 <0>         0.0954
     59 H27        -1.9964    3.0509    9.2985 H         1 <0>         0.4342
@<TRIPOS>BOND
     1    1    2 1
     2    1   34 1
     3    1   35 1
     4    1   36 1
     5    2    6 2
     6    2    3 1
     7    3    4 2
     8    3   37 1
     9    4    5 1
    10    4   38 1
    11    5    6 1
    12    6    7 1
    13    7    8 1
    14    7   39 1
    15    7   40 1
    16    8    9 am
    17    8   41 1
    18    9   10 2
    19    9   11 1
    20   11   12 1
    21   11   16 1
    22   11   13 1
    23   13   14 1
    24   13   42 1
    25   13   43 1
    26   14   15 1
    27   14   22 am
    28   15   16 1
    29   15   44 1
    30   15   45 1
    31   16   21 1
    32   16   17 1
    33   17   18 1
    34   17   46 1
    35   17   47 1
    36   18   19 1
    37   18   48 1
    38   18   49 1
    39   19   20 1
    40   19   50 1
    41   19   59 1
    42   20   21 1
    43   20   51 1
    44   20   52 1
    45   21   53 1
    46   21   54 1
    47   22   23 2
    48   22   24 1
    49   24   28 2
    50   24   25 1
    51   25   26 2
    52   25   55 1
    53   26   27 1
    54   26   33 1
    55   27   28 1
    56   28   29 1
    57   29   30 1
    58   29   31 1
    59   29   32 1
    60   33   56 1
    61   33   57 1
    62   33   58 1
@<TRIPOS>MOLECULE
ZINC39916193
   59    60     0     0     0
SMALL
USER_CHARGES

@<TRIPOS>ATOM
      1 C1          0.4393    1.2337    0.7457 C.3       1 <0>        -0.1806
      2 C2         -0.0919   -0.1169    0.2555 C.3       1 <0>         0.0595
      3 C3         -1.5989   -0.0324    0.0385 C.3       1 <0>        -0.1257
      4 C4         -2.3309   -0.0207    1.3805 C.3       1 <0>         0.0997
      5 C5         -1.9853   -1.3119    2.1225 C.3       1 <0>        -0.1648
      6 C6         -0.4810   -1.4062    2.3537 C.3       1 <0>         0.0572
      7 N1          0.3017   -1.1958    1.1468 N.4       1 <0>        -0.3608
      8 C7          1.7181   -1.0054    1.5266 C.3       1 <0>        -0.0678
      9 C8          2.6204   -1.4864    0.3884 C.3       1 <0>         0.0736
     10 H1          2.5345   -0.8034   -0.4568 H         1 <0>         0.1456
     11 C9          4.0724   -1.5228    0.8692 C.3       1 <0>         0.0332
     12 O1          4.9281   -1.8593   -0.2247 O.3       1 <0>        -0.3636
     13 C10         6.3138   -1.9204    0.1189 C.3       1 <0>         0.0669
     14 C11         7.1311   -2.2867   -1.1216 C.3       1 <0>         0.0613
     15 O2          7.0269   -1.2385   -2.0872 O.3       1 <0>        -0.3091
     16 C12         7.6998   -1.4075   -3.2572 C.ar      1 <0>         0.0383
     17 C13         9.0099   -0.9637   -3.3764 C.ar      1 <0>         0.1222
     18 C14         9.6922   -1.1374   -4.5675 C.ar      1 <0>        -0.1236
     19 C15         9.0702   -1.7526   -5.6391 C.ar      1 <0>        -0.0423
     20 C16         7.7648   -2.1954   -5.5232 C.ar      1 <0>        -0.1247
     21 C17         7.0797   -2.0294   -4.3325 C.ar      1 <0>         0.1240
     22 F1          5.8069   -2.4675   -4.2180 F         1 <0>        -0.1132
     23 Br1        10.0059   -1.9882   -7.2654 Br        1 <0>        -0.0033
     24 F2          9.6178   -0.3624   -2.3304 F         1 <0>        -0.1140
     25 O3          2.2195   -2.7971   -0.0158 O.3       1 <0>        -0.5404
     26 C18        -0.1812   -2.8355    2.8626 C.3       1 <0>        -0.1812
     27 C19        -0.0643   -0.4376    3.4650 C.3       1 <0>        -0.1785
     28 O4         -3.7433    0.0262    1.1475 O.3       1 <0>        -0.5527
     29 C20         0.5582   -0.3869   -1.1214 C.3       1 <0>        -0.1873
     30 H2          1.5279    1.2015    0.7904 H         1 <0>         0.0859
     31 H3          0.1271    2.0186    0.0567 H         1 <0>         0.1090
     32 H4          0.0408    1.4422    1.7386 H         1 <0>         0.0822
     33 H5         -1.8377    0.8812   -0.5115 H         1 <0>         0.1177
     34 H6         -1.9321   -0.8920   -0.5479 H         1 <0>         0.0977
     35 H7         -2.0397    0.8460    1.9667 H         1 <0>         0.0738
     36 H8         -2.5039   -1.3261    3.0843 H         1 <0>         0.1118
     37 H9         -2.3183   -2.1688    1.5320 H         1 <0>         0.0982
     38 H10         1.9045    0.0517    1.7160 H         1 <0>         0.1539
     39 H11         1.9330   -1.5794    2.4279 H         1 <0>         0.1387
     40 H12         4.3503   -0.5439    1.2601 H         1 <0>         0.0697
     41 H13         4.1762   -2.2707    1.6552 H         1 <0>         0.0626
     42 H14         6.6383   -0.9499    0.4942 H         1 <0>         0.0684
     43 H15         6.4642   -2.6767    0.8893 H         1 <0>         0.0778
     44 H16         8.1761   -2.4203   -0.8418 H         1 <0>         0.0803
     45 H17         6.7479   -3.2135   -1.5486 H         1 <0>         0.0713
     46 H18        10.7112   -0.7920   -4.6609 H         1 <0>         0.1617
     47 H19         7.2814   -2.6751   -6.3614 H         1 <0>         0.1609
     48 H20         2.2086   -3.4441    0.7027 H         1 <0>         0.3836
     49 H21        -0.3898   -3.5545    2.0704 H         1 <0>         0.0830
     50 H22         0.8678   -2.9061    3.1504 H         1 <0>         0.0805
     51 H23        -0.8101   -3.0533    3.7258 H         1 <0>         0.1083
     52 H24        -0.5384   -0.7328    4.4010 H         1 <0>         0.1045
     53 H25         1.0191   -0.4638    3.5825 H         1 <0>         0.0829
     54 H26        -0.3769    0.5731    3.2023 H         1 <0>         0.0828
     55 H27        -4.2750    0.0361    1.9552 H         1 <0>         0.3924
     56 H28         1.5019    0.1541   -1.1900 H         1 <0>         0.0922
     57 H29         0.7429   -1.4554   -1.2328 H         1 <0>         0.0926
     58 H30        -0.1122   -0.0498   -1.9121 H         1 <0>         0.1034
     59 H31         0.2692   -2.0697    0.6039 H         1 <0>         0.4243
@<TRIPOS>BOND
     1    1    2 1
     2    1   30 1
     3    1   31 1
     4    1   32 1
     5    2    7 1
     6    2    3 1
     7    2   29 1
     8    3    4 1
     9    3   33 1
    10    3   34 1
    11    4    5 1
    12    4   28 1
    13    4   35 1
    14    5    6 1
    15    5   36 1
    16    5   37 1
    17    6    7 1
    18    6   26 1
    19    6   27 1
    20    7    8 1
    21    7   59 1
    22    8    9 1
    23    8   38 1
    24    8   39 1
    25    9   10 1
    26    9   11 1
    27    9   25 1
    28   11   12 1
    29   11   40 1
    30   11   41 1
    31   12   13 1
    32   13   14 1
    33   13   42 1
    34   13   43 1
    35   14   15 1
    36   14   44 1
    37   14   45 1
    38   15   16 1
    39   16   21 ar
    40   16   17 ar
    41   17   18 ar
    42   17   24 1
    43   18   19 ar
    44   18   46 1
    45   19   20 ar
    46   19   23 1
    47   20   21 ar
    48   20   47 1
    49   21   22 1
    50   25   48 1
    51   26   49 1
    52   26   50 1
    53   26   51 1
    54   27   52 1
    55   27   53 1
    56   27   54 1
    57   28   55 1
    58   29   56 1
    59   29   57 1
    60   29   58 1
@<TRIPOS>MOLECULE
ZINC63752524
   54    58     0     0     0
SMALL
USER_CHARGES

@<TRIPOS>ATOM
      1 C1         -2.4494    0.9207    0.2493 C.3       1 <0>        -0.1218
      2 C2         -1.7381   -0.4054    0.1688 C.ar      1 <0>        -0.1287
      3 C3         -1.5876   -1.0236   -1.0754 C.ar      1 <0>         0.0602
      4 C4         -0.9577   -2.2157   -1.2109 C.ar      1 <0>        -0.2049
      5 C5         -0.4297   -2.8692   -0.0672 C.ar      1 <0>         0.3343
      6 N1          0.2127   -4.0121    0.0653 N.pl3     1 <0>        -0.5880
      7 C6          0.5370   -4.2186    1.4804 C.3       1 <0>         0.0971
      8 H1          1.6171   -4.2804    1.6129 H         1 <0>         0.1943
      9 C7         -0.0097   -3.0137    2.2135 C.2       1 <0>         0.2928
     10 C8         -0.5902   -2.2147    1.2425 C.ar      1 <0>        -0.1773
     11 C9         -1.2551   -0.9669    1.3048 C.ar      1 <0>         0.0051
     12 N2          0.0549   -2.7665    3.5499 N.am      1 <0>        -0.6233
     13 C10         0.1413   -1.4980    3.9972 C.2       1 <0>         0.5640
     14 O1          0.1257   -0.5733    3.2087 O.2       1 <0>        -0.4579
     15 C11         0.2549   -1.2318    5.4454 C.ar      1 <0>        -0.1564
     16 C12         0.2788   -2.2926    6.3536 C.ar      1 <0>        -0.0677
     17 C13         0.3849   -2.0375    7.7044 C.ar      1 <0>        -0.1119
     18 C14         0.4678   -0.7325    8.1614 C.ar      1 <0>         0.0084
     19 C15         0.4441    0.3240    7.2656 C.ar      1 <0>        -0.1130
     20 C16         0.3446    0.0816    5.9119 C.ar      1 <0>        -0.0280
     21 Cl1         0.6012   -0.4195    9.8637 Cl        1 <0>        -0.0349
     22 C17        -0.1202   -5.4773    1.9852 C.2       1 <0>         0.5117
     23 O2         -1.0486   -5.9635    1.3746 O.2       1 <0>        -0.4798
     24 N3          0.3237   -6.0627    3.1151 N.am      1 <0>        -0.7119
     25 C18        -0.3152   -7.2864    3.6058 C.3       1 <0>         0.1658
     26 C19         0.3638   -7.7334    4.8747 C.ar      1 <0>        -0.1212
     27 C20         1.4456   -8.5920    4.8125 C.ar      1 <0>        -0.0817
     28 C21         2.0721   -9.0045    5.9736 C.ar      1 <0>        -0.1009
     29 C22         1.6163   -8.5583    7.2035 C.ar      1 <0>         0.0549
     30 C23         0.5265   -7.6935    7.2662 C.ar      1 <0>         0.0332
     31 C24        -0.0928   -7.2797    6.0980 C.ar      1 <0>        -0.0850
     32 O3          0.2749   -7.4030    8.5760 O.3       1 <0>        -0.3055
     33 C25         0.9609   -8.4173    9.3334 C.3       1 <0>         0.2120
     34 O4          2.0476   -8.8096    8.4740 O.3       1 <0>        -0.3030
     35 H2         -1.7271    1.7283    0.1298 H         1 <0>         0.0843
     36 H3         -3.1962    0.9811   -0.5423 H         1 <0>         0.0795
     37 H4         -2.9393    1.0120    1.2187 H         1 <0>         0.0766
     38 H5         -1.9849   -0.5375   -1.9541 H         1 <0>         0.1609
     39 H6         -0.8581   -2.6674   -2.1868 H         1 <0>         0.1636
     40 H7         -1.3806   -0.4659    2.2533 H         1 <0>         0.1682
     41 H8          0.0387   -3.5031    4.1808 H         1 <0>         0.4334
     42 H9          0.2139   -3.3105    5.9985 H         1 <0>         0.1321
     43 H10         0.4032   -2.8570    8.4077 H         1 <0>         0.1507
     44 H11         0.5087    1.3393    7.6280 H         1 <0>         0.1533
     45 H12         0.3310    0.9059    5.2142 H         1 <0>         0.1539
     46 H13         1.0662   -5.6739    3.6033 H         1 <0>         0.4070
     47 H14        -1.3685   -7.0908    3.8068 H         1 <0>         0.0933
     48 H15        -0.2284   -8.0690    2.8521 H         1 <0>         0.0970
     49 H16         1.8018   -8.9414    3.8546 H         1 <0>         0.1429
     50 H17         2.9170   -9.6752    5.9221 H         1 <0>         0.1437
     51 H18        -0.9354   -6.6055    6.1434 H         1 <0>         0.1378
     52 H19         1.3413   -8.0057   10.2683 H         1 <0>         0.1395
     53 H20         0.3010   -9.2630    9.5266 H         1 <0>         0.0924
     54 H21         0.4350   -4.6198   -0.6574 H         1 <0>         0.4586
@<TRIPOS>BOND
     1    1    2 1
     2    1   35 1
     3    1   36 1
     4    1   37 1
     5    2   11 ar
     6    2    3 ar
     7    3    4 ar
     8    3   38 1
     9    4    5 ar
    10    4   39 1
    11    5   10 ar
    12    5    6 2
    13    6    7 1
    14    6   54 1
    15    7    8 1
    16    7    9 1
    17    7   22 1
    18    9   10 2
    19    9   12 1
    20   10   11 ar
    21   11   40 1
    22   12   13 am
    23   12   41 1
    24   13   14 2
    25   13   15 1
    26   15   20 ar
    27   15   16 ar
    28   16   17 ar
    29   16   42 1
    30   17   18 ar
    31   17   43 1
    32   18   19 ar
    33   18   21 1
    34   19   20 ar
    35   19   44 1
    36   20   45 1
    37   22   23 2
    38   22   24 am
    39   24   25 1
    40   24   46 1
    41   25   26 1
    42   25   47 1
    43   25   48 1
    44   26   31 ar
    45   26   27 ar
    46   27   28 ar
    47   27   49 1
    48   28   29 ar
    49   28   50 1
    50   29   34 1
    51   29   30 ar
    52   30   31 ar
    53   30   32 1
    54   31   51 1
    55   32   33 1
    56   33   34 1
    57   33   52 1
    58   33   53 1
@<TRIPOS>MOLECULE
ZINC11963972
   68    71     0     0     0
SMALL
USER_CHARGES
N-[[(2S)-8-[[4-(3-hydroxy-3-methyl-but-1-ynyl)phenyl]methyl]-1-oxa-8-azaspiro[4.5]decan-2-yl]methyl]-1-methyl-pyrazole-3-carboxamide
@<TRIPOS>ATOM
      1 C1         -2.6741    6.4869   12.5859 C.3       1 <0>        -0.1401
      2 C2         -3.8720    7.2488   12.0156 C.3       1 <0>         0.2357
      3 C3         -3.6551    8.7521   12.2002 C.3       1 <0>        -0.1763
      4 C4         -4.0092    6.9453   10.5818 C.1       1 <0>        -0.1337
      5 C5         -4.1186    6.7032    9.4382 C.1       1 <0>        -0.1606
      6 C6         -4.2520    6.4079    8.0434 C.ar      1 <0>         0.0640
      7 C7         -5.2797    6.9888    7.2994 C.ar      1 <0>        -0.0956
      8 C8         -5.4031    6.6998    5.9559 C.ar      1 <0>        -0.0890
      9 C9         -4.5106    5.8362    5.3463 C.ar      1 <0>        -0.1562
     10 C10        -3.4927    5.2529    6.0795 C.ar      1 <0>        -0.0894
     11 C11        -3.3552    5.5377    7.4225 C.ar      1 <0>        -0.0954
     12 C12        -4.6516    5.5247    3.8786 C.3       1 <0>         0.0491
     13 C13        -3.7902    6.0858    1.6869 C.3       1 <0>         0.0032
     14 C14        -3.1060    7.1889    0.8754 C.3       1 <0>        -0.1584
     15 C15        -1.7104    7.4422    1.4449 C.3       1 <0>         0.0937
     16 C16        -1.0348    8.5891    0.6735 C.3       1 <0>        -0.1450
     17 C17         0.2067    7.9276    0.0256 C.3       1 <0>        -0.1479
     18 C18        -0.1820    6.4270    0.0364 C.3       1 <0>         0.0680
     19 H1         -0.8282    6.1894   -0.8087 H         1 <0>         0.0843
     20 O1         -0.8966    6.2718    1.2821 O.3       1 <0>        -0.3581
     21 C19         1.0691    5.5465    0.0199 C.3       1 <0>         0.1255
     22 N1          0.6735    4.1359    0.0168 N.am      1 <0>        -0.7199
     23 C20         1.6153    3.1719    0.0029 C.2       1 <0>         0.6079
     24 O2          2.7931    3.4729   -0.0071 O.2       1 <0>        -0.5236
     25 C21         1.2164    1.7497   -0.0002 C.2       1 <0>        -0.0230
     26 C22         2.0839    0.6319   -0.0144 C.2       1 <0>        -0.1761
     27 C23         1.2753   -0.4537   -0.0126 C.2       1 <0>        -0.0124
     28 N2          0.0021   -0.0041    0.0020 N.pl3     1 <0>        -0.2821
     29 N3         -0.0153    1.2805    0.0091 N.2       1 <0>        -0.2683
     30 C24        -1.1882   -0.8582    0.0084 C.3       1 <0>         0.0846
     31 C25        -1.8104    7.8048    2.9263 C.3       1 <0>        -0.1342
     32 C26        -2.5355    6.6825    3.6735 C.3       1 <0>        -0.0049
     33 O3         -5.0603    6.8511   12.7025 O.3       1 <0>        -0.5428
     34 H2         -1.7677    6.7903   12.0619 H         1 <0>         0.0763
     35 H3         -2.5725    6.7117   13.6476 H         1 <0>         0.0809
     36 H4         -2.8286    5.4159   12.4544 H         1 <0>         0.0686
     37 H5         -4.5086    9.2949   11.7939 H         1 <0>         0.0640
     38 H6         -3.5536    8.9769   13.2619 H         1 <0>         0.0827
     39 H7         -2.7488    9.0555   11.6763 H         1 <0>         0.0725
     40 H8         -5.9768    7.6634    7.7741 H         1 <0>         0.1388
     41 H9         -6.1983    7.1485    5.3791 H         1 <0>         0.1370
     42 H10        -2.8019    4.5761    5.5987 H         1 <0>         0.1370
     43 H11        -2.5579    5.0847    7.9929 H         1 <0>         0.1395
     44 H12        -5.7017    5.5879    3.5930 H         1 <0>         0.1355
     45 H13        -4.2821    4.5180    3.6837 H         1 <0>         0.1374
     46 H14        -4.7947    5.9187    1.2981 H         1 <0>         0.1288
     47 H15        -3.2123    5.1649    1.6077 H         1 <0>         0.1357
     48 H16        -3.6952    8.1039    0.9357 H         1 <0>         0.0981
     49 H17        -3.0230    6.8767   -0.1657 H         1 <0>         0.1145
     50 H18        -1.7036    8.9793   -0.0937 H         1 <0>         0.0869
     51 H19        -0.7340    9.3836    1.3565 H         1 <0>         0.0898
     52 H20         1.0989    8.1026    0.6267 H         1 <0>         0.0893
     53 H21         0.3501    8.2849   -0.9942 H         1 <0>         0.0935
     54 H22         1.6706    5.7532    0.9051 H         1 <0>         0.0812
     55 H23         1.6532    5.7619   -0.8748 H         1 <0>         0.0897
     56 H24        -0.2663    3.8957    0.0248 H         1 <0>         0.4062
     57 H25         3.1638    0.6426   -0.0244 H         1 <0>         0.1652
     58 H26         1.5898   -1.4869   -0.0214 H         1 <0>         0.1867
     59 H27        -1.4930   -1.0642   -1.0177 H         1 <0>         0.0884
     60 H28        -0.9597   -1.7960    0.5147 H         1 <0>         0.0999
     61 H29        -1.9973   -0.3499    0.5328 H         1 <0>         0.0947
     62 H30        -0.8091    7.9291    3.3389 H         1 <0>         0.1182
     63 H31        -2.3680    8.7349    3.0365 H         1 <0>         0.0986
     64 H32        -2.6295    6.9486    4.7263 H         1 <0>         0.1310
     65 H33        -1.9655    5.7579    3.5820 H         1 <0>         0.1355
     66 H34        -5.8613    7.2952   12.3922 H         1 <0>         0.3830
     67 N4         -3.8873    6.5189    3.0975 N.4       1 <0>        -0.3914
     68 H35        -4.3768    7.4206    3.1358 H         1 <0>         0.4235
@<TRIPOS>BOND
     1    1    2 1
     2    1   34 1
     3    1   35 1
     4    1   36 1
     5    2    3 1
     6    2    4 1
     7    2   33 1
     8    3   37 1
     9    3   38 1
    10    3   39 1
    11    4    5 3
    12    5    6 1
    13    6   11 ar
    14    6    7 ar
    15    7    8 ar
    16    7   40 1
    17    8    9 ar
    18    8   41 1
    19    9   10 ar
    20    9   12 1
    21   10   11 ar
    22   10   42 1
    23   11   43 1
    24   12   44 1
    25   12   45 1
    26   12   67 1
    27   13   14 1
    28   13   46 1
    29   13   47 1
    30   13   67 1
    31   14   15 1
    32   14   48 1
    33   14   49 1
    34   15   20 1
    35   15   16 1
    36   15   31 1
    37   16   17 1
    38   16   50 1
    39   16   51 1
    40   17   18 1
    41   17   52 1
    42   17   53 1
    43   18   19 1
    44   18   20 1
    45   18   21 1
    46   21   22 1
    47   21   54 1
    48   21   55 1
    49   22   23 am
    50   22   56 1
    51   23   24 2
    52   23   25 1
    53   25   29 2
    54   25   26 1
    55   26   27 2
    56   26   57 1
    57   27   28 1
    58   27   58 1
    59   28   29 1
    60   28   30 1
    61   30   59 1
    62   30   60 1
    63   30   61 1
    64   31   32 1
    65   31   62 1
    66   31   63 1
    67   32   64 1
    68   32   65 1
    69   32   67 1
    70   33   66 1
    71   67   68 1
@<TRIPOS>MOLECULE
ZINC14997382
   69    72     0     0     0
SMALL
USER_CHARGES
1-[2-dimethylamino-6-(o-tolyl)pyridine-3-carbonyl]-4-(1-piperidyl)piperidine-4-carboxamide
@<TRIPOS>ATOM
      1 C1         -7.3559   -3.7107    6.5647 C.3       1 <0>        -0.1205
      2 C2         -7.6923   -2.2807    6.9009 C.ar      1 <0>        -0.0423
      3 C3         -8.4113   -1.9895    8.0424 C.ar      1 <0>        -0.1229
      4 C4         -8.7261   -0.6780    8.3491 C.ar      1 <0>        -0.0971
      5 C5         -8.3178    0.3498    7.5176 C.ar      1 <0>        -0.1275
      6 C6         -7.5940    0.0713    6.3764 C.ar      1 <0>        -0.0905
      7 C7         -7.2737   -1.2489    6.0621 C.ar      1 <0>        -0.0680
      8 C8         -6.4963   -1.5546    4.8376 C.ar      1 <0>         0.2191
      9 C9         -6.8673   -0.9727    3.6250 C.ar      1 <0>        -0.1676
     10 C10        -6.1383   -1.2537    2.4871 C.ar      1 <0>        -0.0399
     11 C11        -5.0502   -2.1306    2.5905 C.ar      1 <0>        -0.1702
     12 C12        -4.7350   -2.6802    3.8458 C.ar      1 <0>         0.3489
     13 N1         -5.4582   -2.3779    4.9111 N.ar      1 <0>        -0.4967
     14 N2         -3.6615   -3.5433    3.9673 N.pl3     1 <0>        -0.4891
     15 C13        -2.7107   -3.0618    4.9783 C.3       1 <0>         0.0250
     16 C14        -4.1141   -4.9061    4.2771 C.3       1 <0>         0.0302
     17 C15        -4.2453   -2.4668    1.4036 C.2       1 <0>         0.5844
     18 O1         -3.9960   -3.6293    1.1472 O.2       1 <0>        -0.4965
     19 N3         -3.7851   -1.4863    0.6016 N.am      1 <0>        -0.6160
     20 C16        -3.0793   -1.8089   -0.6460 C.3       1 <0>         0.1156
     21 C17        -1.7299   -1.0837   -0.6508 C.3       1 <0>        -0.1477
     22 C18        -1.9588    0.4129   -0.4272 C.3       1 <0>         0.0451
     23 C19        -2.6198    0.6315    0.9357 C.3       1 <0>        -0.1353
     24 C20        -3.9792   -0.0743    0.9585 C.3       1 <0>         0.0843
     25 C21        -2.8558    0.9512   -1.5120 C.2       1 <0>         0.5177
     26 O2         -4.0389    1.1097   -1.2975 O.2       1 <0>        -0.4821
     27 N4         -2.3431    1.2565   -2.7205 N.am      1 <0>        -0.8706
     28 N5         -0.6696    1.1161   -0.4643 N.4       1 <0>        -0.3885
     29 C22        -0.8576    2.5668   -0.3360 C.3       1 <0>        -0.0169
     30 C23         0.4858    3.2752   -0.5242 C.3       1 <0>        -0.1421
     31 C24         1.4739    2.7743    0.5329 C.3       1 <0>        -0.1415
     32 C25         1.6148    1.2547    0.4090 C.3       1 <0>        -0.1437
     33 C26         0.2387    0.6048    0.5701 C.3       1 <0>        -0.0137
     34 H1         -7.7679   -4.3758    7.3379 H         1 <0>         0.0665
     35 H2         -6.2632   -3.8301    6.5226 H         1 <0>         0.0854
     36 H3         -7.7910   -3.9699    5.5882 H         1 <0>         0.0631
     37 H4         -8.7327   -2.7877    8.6952 H         1 <0>         0.1285
     38 H5         -9.2931   -0.4553    9.2409 H         1 <0>         0.1280
     39 H6         -8.5664    1.3719    7.7621 H         1 <0>         0.1286
     40 H7         -7.2758    0.8744    5.7281 H         1 <0>         0.1244
     41 H8         -7.7142   -0.3042    3.5782 H         1 <0>         0.1475
     42 H9         -6.4031   -0.8113    1.5381 H         1 <0>         0.1460
     43 H10        -1.8686   -3.7655    5.0543 H         1 <0>         0.0791
     44 H11        -3.2167   -2.9890    5.9523 H         1 <0>         0.0494
     45 H12        -2.3348   -2.0704    4.6854 H         1 <0>         0.0606
     46 H13        -3.2420   -5.5703    4.3681 H         1 <0>         0.0807
     47 H14        -4.7678   -5.2678    3.4697 H         1 <0>         0.0753
     48 H15        -4.6714   -4.9007    5.2255 H         1 <0>         0.0433
     49 H16        -2.9190   -2.8955   -0.7061 H         1 <0>         0.1200
     50 H17        -3.6829   -1.4793   -1.5045 H         1 <0>         0.0790
     51 H18        -1.0960   -1.4835    0.1544 H         1 <0>         0.1090
     52 H19        -1.2334   -1.2394   -1.6199 H         1 <0>         0.1047
     53 H20        -1.9765    0.2170    1.7259 H         1 <0>         0.0981
     54 H21        -2.7616    1.7090    1.1059 H         1 <0>         0.1013
     55 H22        -4.6567    0.3978    0.2318 H         1 <0>         0.1258
     56 H23        -4.4173   -0.0074    1.9653 H         1 <0>         0.1010
     57 H24        -2.9978    1.6494   -3.5124 H         1 <0>         0.4539
     58 H25        -1.2700    1.1128   -2.9150 H         1 <0>         0.4111
     59 H26        -1.5654    2.9141   -1.1031 H         1 <0>         0.1298
     60 H27        -1.2568    2.7979    0.6626 H         1 <0>         0.1316
     61 H28         0.8782    3.0564   -1.5283 H         1 <0>         0.0894
     62 H29         0.3466    4.3607   -0.4134 H         1 <0>         0.1148
     63 H30         2.4528    3.2503    0.3745 H         1 <0>         0.0972
     64 H31         1.0997    3.0302    1.5351 H         1 <0>         0.0824
     65 H32         2.0271    1.0041   -0.5795 H         1 <0>         0.0899
     66 H33         2.2913    0.8840    1.1931 H         1 <0>         0.1155
     67 H34        -0.1657    0.8451    1.5645 H         1 <0>         0.1309
     68 H35         0.3346   -0.4862    0.4672 H         1 <0>         0.1358
     69 H36        -0.2056    0.9235   -1.4429 H         1 <0>         0.4295
@<TRIPOS>BOND
     1    1    2 1
     2    1   34 1
     3    1   35 1
     4    1   36 1
     5    2    7 ar
     6    2    3 ar
     7    3    4 ar
     8    3   37 1
     9    4    5 ar
    10    4   38 1
    11    5    6 ar
    12    5   39 1
    13    6    7 ar
    14    6   40 1
    15    7    8 1
    16    8   13 ar
    17    8    9 ar
    18    9   10 ar
    19    9   41 1
    20   10   11 ar
    21   10   42 1
    22   11   12 ar
    23   11   17 1
    24   12   13 ar
    25   12   14 1
    26   14   15 1
    27   14   16 1
    28   15   43 1
    29   15   44 1
    30   15   45 1
    31   16   46 1
    32   16   47 1
    33   16   48 1
    34   17   18 2
    35   17   19 am
    36   19   24 1
    37   19   20 1
    38   20   21 1
    39   20   49 1
    40   20   50 1
    41   21   22 1
    42   21   51 1
    43   21   52 1
    44   22   23 1
    45   22   25 1
    46   22   28 1
    47   23   24 1
    48   23   53 1
    49   23   54 1
    50   24   55 1
    51   24   56 1
    52   25   26 2
    53   25   27 am
    54   27   57 1
    55   27   58 1
    56   28   33 1
    57   28   29 1
    58   28   69 1
    59   29   30 1
    60   29   59 1
    61   29   60 1
    62   30   31 1
    63   30   61 1
    64   30   62 1
    65   31   32 1
    66   31   63 1
    67   31   64 1
    68   32   33 1
    69   32   65 1
    70   32   66 1
    71   33   67 1
    72   33   68 1
@<TRIPOS>MOLECULE
ZINC39659373
   61    64     0     0     0
SMALL
USER_CHARGES

@<TRIPOS>ATOM
      1 C1          3.1723   -5.1751   -1.4572 C.3       1 <0>        -0.1740
      2 C2          4.4324   -5.4690   -0.6407 C.3       1 <0>         0.2518
      3 O1          5.5634   -4.8226   -1.2487 O.3       1 <0>        -0.3648
      4 C3          5.7005   -3.5695   -0.5366 C.3       1 <0>         0.0239
      5 C4          5.3065   -3.9813    0.9039 C.3       1 <0>         0.0378
      6 H1          6.1562   -4.4233    1.4242 H         1 <0>         0.0910
      7 O2          4.2722   -4.9632    0.6911 O.3       1 <0>        -0.3721
      8 C5          4.7648   -2.7796    1.6807 C.3       1 <0>         0.1201
      9 N1          4.5132   -3.1695    3.0703 N.am      1 <0>        -0.7219
     10 C6          4.0300   -2.2667    3.9466 C.2       1 <0>         0.5214
     11 O3          3.8035   -1.1315    3.5849 O.2       1 <0>        -0.5201
     12 C7          3.7712   -2.6679    5.3760 C.3       1 <0>        -0.1142
     13 H2          3.5270   -3.7286    5.4335 H         1 <0>         0.1142
     14 C8          2.6268   -1.8192    5.9741 C.3       1 <0>         0.0992
     15 N2          3.0337   -1.5790    7.3787 N.am      1 <0>        -0.6180
     16 C9          4.4955   -1.3436    7.3039 C.3       1 <0>         0.1108
     17 C10         4.9960   -2.3522    6.2509 C.3       1 <0>        -0.0728
     18 C11         6.1019   -1.7271    5.4061 C.3       1 <0>        -0.1467
     19 C12         7.3300   -1.4761    6.2858 C.3       1 <0>        -0.0080
     20 N3          7.7870   -2.7451    6.8649 N.4       1 <0>        -0.5044
     21 C13         6.7521   -3.2930    7.7500 C.3       1 <0>        -0.0115
     22 C14         5.4996   -3.6209    6.9323 C.3       1 <0>        -0.1349
     23 C15         2.2515   -1.5757    8.4763 C.2       1 <0>         0.5916
     24 O4          2.7195   -1.2681    9.5553 O.2       1 <0>        -0.5074
     25 C16         0.8258   -1.9458    8.3681 C.ar      1 <0>        -0.1650
     26 C17         0.0970   -1.6051    7.2263 C.ar      1 <0>        -0.0649
     27 C18        -1.2333   -1.9536    7.1308 C.ar      1 <0>        -0.1190
     28 C19        -1.8499   -2.6403    8.1629 C.ar      1 <0>        -0.0508
     29 C20        -1.1373   -2.9824    9.2977 C.ar      1 <0>        -0.0824
     30 C21         0.2007   -2.6438    9.4056 C.ar      1 <0>         0.1656
     31 F1          0.8986   -2.9824   10.5117 F         1 <0>        -0.1065
     32 Cl1        -1.9201   -3.8435   10.5860 Cl        1 <0>        -0.0282
     33 C22         4.6724   -6.9792   -0.5917 C.3       1 <0>        -0.1559
     34 H3          3.0076   -4.0984   -1.4964 H         1 <0>         0.0636
     35 H4          3.2968   -5.5607   -2.4691 H         1 <0>         0.0807
     36 H5          2.3146   -5.6570   -0.9878 H         1 <0>         0.0772
     37 H6          6.7292   -3.2109   -0.5723 H         1 <0>         0.1139
     38 H7          5.0137   -2.8200   -0.9299 H         1 <0>         0.0829
     39 H8          5.4962   -1.9718    1.6568 H         1 <0>         0.0897
     40 H9          3.8347   -2.4411    1.2242 H         1 <0>         0.0858
     41 H10         4.6943   -4.0775    3.3596 H         1 <0>         0.4047
     42 H11         2.5343   -0.8745    5.4384 H         1 <0>         0.1057
     43 H12         1.6870   -2.3703    5.9397 H         1 <0>         0.1017
     44 H13         4.7005   -0.3226    6.9817 H         1 <0>         0.0886
     45 H14         4.9623   -1.5397    8.2692 H         1 <0>         0.0912
     46 H15         6.3677   -2.4052    4.5952 H         1 <0>         0.0966
     47 H16         5.7524   -0.7818    4.9910 H         1 <0>         0.1272
     48 H17         8.1277   -1.0448    5.6810 H         1 <0>         0.1399
     49 H18         7.0677   -0.7850    7.0868 H         1 <0>         0.1341
     50 H19         7.9764   -3.4028    6.1235 H         1 <0>         0.4274
     51 H20         7.1238   -4.2011    8.2247 H         1 <0>         0.1407
     52 H21         6.5035   -2.5586    8.5162 H         1 <0>         0.1346
     53 H22         4.7254   -4.0109    7.5931 H         1 <0>         0.1185
     54 H23         5.7436   -4.3675    6.1766 H         1 <0>         0.0974
     55 H24         0.5749   -1.0691    6.4197 H         1 <0>         0.1483
     56 H25        -1.7967   -1.6897    6.2480 H         1 <0>         0.1517
     57 H26        -2.8925   -2.9099    8.0815 H         1 <0>         0.1544
     58 H27         4.7884   -7.3618   -1.6057 H         1 <0>         0.0799
     59 H28         5.5774   -7.1849   -0.0200 H         1 <0>         0.0658
     60 H29         3.8225   -7.4669   -0.1143 H         1 <0>         0.0795
     61 H30         8.6312   -2.5869    7.3944 H         1 <0>         0.4349
@<TRIPOS>BOND
     1    1    2 1
     2    1   34 1
     3    1   35 1
     4    1   36 1
     5    2    7 1
     6    2    3 1
     7    2   33 1
     8    3    4 1
     9    4    5 1
    10    4   37 1
    11    4   38 1
    12    5    6 1
    13    5    7 1
    14    5    8 1
    15    8    9 1
    16    8   39 1
    17    8   40 1
    18    9   10 am
    19    9   41 1
    20   10   11 2
    21   10   12 1
    22   12   13 1
    23   12   17 1
    24   12   14 1
    25   14   15 1
    26   14   42 1
    27   14   43 1
    28   15   16 1
    29   15   23 am
    30   16   17 1
    31   16   44 1
    32   16   45 1
    33   17   22 1
    34   17   18 1
    35   18   19 1
    36   18   46 1
    37   18   47 1
    38   19   20 1
    39   19   48 1
    40   19   49 1
    41   20   21 1
    42   20   50 1
    43   20   61 1
    44   21   22 1
    45   21   51 1
    46   21   52 1
    47   22   53 1
    48   22   54 1
    49   23   24 2
    50   23   25 1
    51   25   30 ar
    52   25   26 ar
    53   26   27 ar
    54   26   55 1
    55   27   28 ar
    56   27   56 1
    57   28   29 ar
    58   28   57 1
    59   29   30 ar
    60   29   32 1
    61   30   31 1
    62   33   58 1
    63   33   59 1
    64   33   60 1
@<TRIPOS>MOLECULE
ZINC39687736
   70    74     0     0     0
SMALL
USER_CHARGES

@<TRIPOS>ATOM
      1 C1          0.0562    1.5065    0.0073 C.3       1 <0>        -0.1260
      2 C2          0.0565   -0.0005   -0.0000 C.ar      1 <0>        -0.0486
      3 C3         -0.5492   -0.6843   -1.0393 C.ar      1 <0>        -0.1269
      4 C4         -0.5525   -2.0638   -1.0520 C.ar      1 <0>        -0.0532
      5 C5          0.0570   -2.7697   -0.0135 C.ar      1 <0>        -0.1508
      6 C6          0.6662   -2.0737    1.0318 C.ar      1 <0>        -0.0904
      7 C7          0.6673   -0.6942    1.0296 C.ar      1 <0>        -0.1281
      8 C8          0.0569   -4.2481   -0.0205 C.2       1 <0>         0.5909
      9 O1         -0.0489   -4.8510   -1.0707 O.2       1 <0>        -0.5278
     10 N1          0.1740   -4.9275    1.1376 N.am      1 <0>        -0.6206
     11 C9          0.1844   -4.3801    2.5147 C.3       1 <0>         0.1029
     12 C10        -0.6338   -5.3949    3.3443 C.3       1 <0>        -0.1157
     13 H1         -1.6723   -5.0728    3.4209 H         1 <0>         0.1124
     14 C11        -0.5385   -6.7127    2.5573 C.3       1 <0>        -0.0716
     15 C12         0.3151   -6.3918    1.3219 C.3       1 <0>         0.1084
     16 C13        -1.9278   -7.1724    2.1261 C.3       1 <0>        -0.1341
     17 C14        -1.8127   -8.5130    1.3951 C.3       1 <0>        -0.0111
     18 N2         -1.2009   -9.5068    2.2856 N.4       1 <0>        -0.5044
     19 C15         0.1696   -9.1023    2.6213 C.3       1 <0>        -0.0079
     20 C16         0.1383   -7.7864    3.4038 C.3       1 <0>        -0.1478
     21 C17        -0.0330   -5.5561    4.7169 C.2       1 <0>         0.5214
     22 O2          1.1438   -5.3229    4.8950 O.2       1 <0>        -0.5189
     23 N3         -0.8033   -5.9594    5.7467 N.am      1 <0>        -0.7237
     24 C18        -0.2193   -6.1162    7.0810 C.3       1 <0>         0.1472
     25 C19         0.4142   -7.5042    7.2004 C.3       1 <0>        -0.1397
     26 C20         1.0540   -7.6517    8.5845 C.3       1 <0>         0.1521
     27 N4          0.0403   -7.3610    9.6075 N.pl3     1 <0>        -0.6573
     28 C21        -0.6944   -6.0908    9.5332 C.3       1 <0>         0.1527
     29 C22        -1.3146   -5.9608    8.1385 C.3       1 <0>        -0.1424
     30 C23        -0.2193   -8.2711   10.6265 C.ar      1 <0>         0.3833
     31 C24         0.5654   -8.2616   11.7767 C.ar      1 <0>        -0.0884
     32 C25         0.2953   -9.1726   12.7827 C.ar      1 <0>        -0.0623
     33 C26        -0.7537  -10.0653   12.6040 C.ar      1 <0>        -0.1610
     34 C27        -1.4904  -10.0183   11.4379 C.ar      1 <0>         0.1112
     35 N5         -1.2136   -9.1351   10.4969 N.ar      1 <0>        -0.4825
     36 Cl1         1.8650   -7.1230   11.9462 Cl        1 <0>        -0.0427
     37 H2          0.9407    1.8725   -0.5139 H         1 <0>         0.0798
     38 H3         -0.8391    1.8721   -0.4956 H         1 <0>         0.0732
     39 H4          0.0667    1.8648    1.0366 H         1 <0>         0.0725
     40 H5         -1.0207   -0.1369   -1.8420 H         1 <0>         0.1338
     41 H6         -1.0259   -2.5964   -1.8636 H         1 <0>         0.1345
     42 H7          1.1394   -2.6140    1.8383 H         1 <0>         0.1335
     43 H8          1.1421   -0.1544    1.8355 H         1 <0>         0.1319
     44 H9          1.2054   -4.3171    2.8910 H         1 <0>         0.1028
     45 H10        -0.2911   -3.3995    2.5375 H         1 <0>         0.1010
     46 H11        -0.0649   -6.9234    0.4495 H         1 <0>         0.0904
     47 H12         1.3574   -6.6536    1.5040 H         1 <0>         0.0847
     48 H13        -2.5612   -7.2905    3.0052 H         1 <0>         0.0960
     49 H14        -2.3657   -6.4303    1.4584 H         1 <0>         0.1183
     50 H15        -2.8057   -8.8522    1.1002 H         1 <0>         0.1399
     51 H16        -1.1925   -8.3904    0.5072 H         1 <0>         0.1345
     52 H17        -1.7458   -9.5788    3.1318 H         1 <0>         0.4275
     53 H18         0.6376   -9.8758    3.2301 H         1 <0>         0.1390
     54 H19         0.7428   -8.9659    1.7043 H         1 <0>         0.1334
     55 H20         1.1573   -7.4774    3.6369 H         1 <0>         0.1249
     56 H21        -0.4207   -7.9264    4.3290 H         1 <0>         0.0990
     57 H22        -1.7445   -6.1460    5.6043 H         1 <0>         0.3989
     58 H23         0.5447   -5.3541    7.2348 H         1 <0>         0.0938
     59 H24        -0.3537   -8.2669    7.0715 H         1 <0>         0.0661
     60 H25         1.1782   -7.6228    6.4320 H         1 <0>         0.0716
     61 H26         1.4195   -8.6707    8.7114 H         1 <0>         0.0711
     62 H27         1.8822   -6.9496    8.6809 H         1 <0>         0.0638
     63 H28        -1.4825   -6.0799   10.2861 H         1 <0>         0.0758
     64 H29        -0.0087   -5.2614    9.7070 H         1 <0>         0.0642
     65 H30        -1.7811   -4.9808    8.0377 H         1 <0>         0.0784
     66 H31        -2.0662   -6.7380    8.0007 H         1 <0>         0.0738
     67 H32         0.8869   -9.1894   13.6860 H         1 <0>         0.1480
     68 H33        -0.9903  -10.7891   13.3698 H         1 <0>         0.1477
     69 H34        -2.3068  -10.7108   11.2953 H         1 <0>         0.1635
     70 H35        -1.1819  -10.4037    1.8237 H         1 <0>         0.4342
@<TRIPOS>BOND
     1    1    2 1
     2    1   37 1
     3    1   38 1
     4    1   39 1
     5    2    7 ar
     6    2    3 ar
     7    3    4 ar
     8    3   40 1
     9    4    5 ar
    10    4   41 1
    11    5    6 ar
    12    5    8 1
    13    6    7 ar
    14    6   42 1
    15    7   43 1
    16    8    9 2
    17    8   10 am
    18   10   15 1
    19   10   11 1
    20   11   12 1
    21   11   44 1
    22   11   45 1
    23   12   13 1
    24   12   14 1
    25   12   21 1
    26   14   20 1
    27   14   15 1
    28   14   16 1
    29   15   46 1
    30   15   47 1
    31   16   17 1
    32   16   48 1
    33   16   49 1
    34   17   18 1
    35   17   50 1
    36   17   51 1
    37   18   19 1
    38   18   52 1
    39   18   70 1
    40   19   20 1
    41   19   53 1
    42   19   54 1
    43   20   55 1
    44   20   56 1
    45   21   22 2
    46   21   23 am
    47   23   24 1
    48   23   57 1
    49   24   29 1
    50   24   25 1
    51   24   58 1
    52   25   26 1
    53   25   59 1
    54   25   60 1
    55   26   27 1
    56   26   61 1
    57   26   62 1
    58   27   28 1
    59   27   30 1
    60   28   29 1
    61   28   63 1
    62   28   64 1
    63   29   65 1
    64   29   66 1
    65   30   35 ar
    66   30   31 ar
    67   31   32 ar
    68   31   36 1
    69   32   33 ar
    70   32   67 1
    71   33   34 ar
    72   33   68 1
    73   34   35 ar
    74   34   69 1
@<TRIPOS>MOLECULE
ZINC49539622
   56    59     0     0     0
SMALL
USER_CHARGES

@<TRIPOS>ATOM
      1 C1         -0.5776    1.4601   -2.1650 C.3       1 <0>        -0.1392
      2 C2         -0.4547    0.0014   -1.8069 C.ar      1 <0>        -0.0177
      3 C3         -0.4550   -0.9557   -2.8055 C.ar      1 <0>        -0.0845
      4 C4         -0.3427   -2.2929   -2.4835 C.ar      1 <0>        -0.0644
      5 C5         -0.2283   -2.6791   -1.1492 C.ar      1 <0>         0.0070
      6 C6         -0.2279   -1.7117   -0.1467 C.ar      1 <0>        -0.0876
      7 C7         -0.3361   -0.3754   -0.4803 C.ar      1 <0>        -0.0292
      8 Cl1        -0.3298    0.8324    0.7666 Cl        1 <0>        -0.0215
      9 N1         -0.1162   -4.0142   -0.8224 N.ar      1 <0>        -0.3932
     10 C8         -1.0895   -4.6049   -0.1263 C.ar      1 <0>         0.5759
     11 N2         -2.2051   -3.8955    0.2690 N.pl3     1 <0>        -0.7824
     12 C9         -0.9520   -5.9685    0.1950 C.ar      1 <0>        -0.3115
     13 C10        -1.7444   -6.9056    0.8941 C.2       1 <0>         0.1635
     14 N3         -1.1256   -8.0516    0.8928 N.2       1 <0>        -0.2130
     15 N4          0.0878   -7.9325    0.2040 N.pl3     1 <0>        -0.4353
     16 H1          0.7330   -8.6429    0.0622 H         1 <0>         0.4652
     17 C11         0.2067   -6.6465   -0.2331 C.ar      1 <0>         0.4061
     18 N5          1.1293   -5.9781   -0.9237 N.ar      1 <0>        -0.5106
     19 C12         0.9624   -4.6991   -1.2118 C.ar      1 <0>         0.3727
     20 S1          2.2104   -3.8660   -2.1354 S.3       1 <0>         0.1820
     21 C13         3.4573   -5.1471   -2.4432 C.3       1 <0>        -0.1704
     22 C14         4.5963   -4.5593   -3.2358 C.2       1 <0>         0.5350
     23 O1          4.5695   -3.3912   -3.5611 O.2       1 <0>        -0.5237
     24 N6          5.6447   -5.3317   -3.5833 N.am      1 <0>        -0.5965
     25 C15         5.6886   -6.7499   -3.2018 C.3       1 <0>         0.0998
     26 C16         5.9266   -7.5916   -4.4594 C.3       1 <0>        -0.1323
     27 C17         7.1861   -7.0929   -5.1714 C.3       1 <0>        -0.0947
     28 C18         6.9913   -5.6354   -5.5955 C.3       1 <0>        -0.1319
     29 C19         6.7625   -4.7730   -4.3560 C.3       1 <0>         0.1098
     30 C20         7.4464   -7.9535   -6.4094 C.3       1 <0>        -0.1499
     31 C21        -3.0802   -6.6265    1.5334 C.3       1 <0>        -0.1031
     32 H2          0.4156    1.8803   -2.3233 H         1 <0>         0.0964
     33 H3         -1.1649    1.5619   -3.0776 H         1 <0>         0.0876
     34 H4         -1.0725    1.9931   -1.3531 H         1 <0>         0.0862
     35 H5         -0.5436   -0.6560   -3.8393 H         1 <0>         0.1618
     36 H6         -0.3438   -3.0392   -3.2642 H         1 <0>         0.1520
     37 H7         -0.1399   -2.0056    0.8888 H         1 <0>         0.1507
     38 H8          3.8332   -5.5243   -1.4921 H         1 <0>         0.1388
     39 H9          3.0069   -5.9647   -3.0059 H         1 <0>         0.1392
     40 H10         6.5013   -6.9128   -2.4939 H         1 <0>         0.0810
     41 H11         4.7408   -7.0350   -2.7452 H         1 <0>         0.0843
     42 H12         6.0571   -8.6366   -4.1784 H         1 <0>         0.0821
     43 H13         5.0701   -7.4982   -5.1272 H         1 <0>         0.0693
     44 H14         8.0378   -7.1635   -4.4948 H         1 <0>         0.0757
     45 H15         7.8796   -5.2881   -6.1231 H         1 <0>         0.0835
     46 H16         6.1248   -5.5604   -6.2525 H         1 <0>         0.0687
     47 H17         6.5231   -3.7542   -4.6606 H         1 <0>         0.0983
     48 H18         7.6647   -4.7712   -3.7443 H         1 <0>         0.0764
     49 H19         6.5947   -7.8837   -7.0860 H         1 <0>         0.0553
     50 H20         8.3435   -7.5985   -6.9167 H         1 <0>         0.0597
     51 H21         7.5864   -8.9915   -6.1075 H         1 <0>         0.0581
     52 H22        -3.8665   -6.7091    0.7830 H         1 <0>         0.1060
     53 H23        -3.2602   -7.3492    2.3293 H         1 <0>         0.1084
     54 H24        -3.0802   -5.6194    1.9503 H         1 <0>         0.0863
     55 H25        -2.2335   -2.9328    0.1542 H         1 <0>         0.4288
     56 H26        -2.9609   -4.3597    0.6617 H         1 <0>         0.4413
@<TRIPOS>BOND
     1    1    2 1
     2    1   32 1
     3    1   33 1
     4    1   34 1
     5    2    7 ar
     6    2    3 ar
     7    3    4 ar
     8    3   35 1
     9    4    5 ar
    10    4   36 1
    11    5    6 ar
    12    5    9 1
    13    6    7 ar
    14    6   37 1
    15    7    8 1
    16    9   19 ar
    17    9   10 ar
    18   10   11 1
    19   10   12 ar
    20   11   55 1
    21   11   56 1
    22   12   13 1
    23   12   17 ar
    24   13   31 1
    25   13   14 2
    26   14   15 1
    27   15   17 1
    28   15   16 1
    29   17   18 ar
    30   18   19 ar
    31   19   20 1
    32   20   21 1
    33   21   22 1
    34   21   38 1
    35   21   39 1
    36   22   23 2
    37   22   24 am
    38   24   29 1
    39   24   25 1
    40   25   26 1
    41   25   40 1
    42   25   41 1
    43   26   27 1
    44   26   42 1
    45   26   43 1
    46   27   28 1
    47   27   30 1
    48   27   44 1
    49   28   29 1
    50   28   45 1
    51   28   46 1
    52   29   47 1
    53   29   48 1
    54   30   49 1
    55   30   50 1
    56   30   51 1
    57   31   52 1
    58   31   53 1
    59   31   54 1
@<TRIPOS>MOLECULE
ZINC36869378
   44    45     0     0     0
SMALL
USER_CHARGES

@<TRIPOS>ATOM
      1 C1          0.3056    1.1397   -0.3320 C.3       1 <0>        -0.0677
      2 N1          0.0635   -0.2906   -0.1002 N.4       1 <0>        -0.3684
      3 C2         -1.3697   -0.5131    0.1331 C.3       1 <0>        -0.0489
      4 C3         -2.1469   -0.2214   -1.1521 C.3       1 <0>         0.0908
      5 H1         -1.7086   -0.7829   -1.9772 H         1 <0>         0.1336
      6 C4         -3.6077   -0.6386   -0.9705 C.3       1 <0>         0.0320
      7 O1         -4.3068   -0.4750   -2.2060 O.3       1 <0>        -0.3032
      8 C5         -5.6255   -0.8036   -2.2169 C.ar      1 <0>         0.1651
      9 C6         -6.2348   -1.2685   -1.0595 C.ar      1 <0>        -0.2689
     10 C7         -7.5754   -1.6031   -1.0689 C.ar      1 <0>        -0.0309
     11 C8         -8.3138   -1.4761   -2.2296 C.ar      1 <0>        -0.2251
     12 C9         -7.7093   -1.0113   -3.3910 C.ar      1 <0>         0.2579
     13 C10        -6.3638   -0.6693   -3.3818 C.ar      1 <0>        -0.2287
     14 N2         -8.4556   -0.8828   -4.5645 N.pl3     1 <0>        -0.8693
     15 O2         -2.0831    1.1768   -1.4404 O.3       1 <0>        -0.5406
     16 C11         0.8254   -0.7319    1.0758 C.3       1 <0>         0.0190
     17 H2          0.5189   -0.1571    1.9497 H         1 <0>         0.1619
     18 C12         2.3294   -0.5333    0.8247 C.3       1 <0>        -0.1493
     19 C13         3.1479   -1.2800    1.9054 C.3       1 <0>        -0.5735
     20 S1          2.0285   -2.6608    2.3775 S.o2      1 <0>         2.3906
     21 O3          1.6689   -2.5175    3.7448 O.2       1 <0>        -0.9029
     22 O4          2.5901   -3.8859    1.9269 O.2       1 <0>        -0.9012
     23 C14         0.5726   -2.2459    1.3276 C.3       1 <0>        -0.6337
     24 H3          1.3772    1.3367   -0.2995 H         1 <0>         0.1247
     25 H4         -0.0860    1.4207   -1.3096 H         1 <0>         0.1524
     26 H5         -0.1946    1.7228    0.4412 H         1 <0>         0.1235
     27 H6         -1.5330   -1.5493    0.4292 H         1 <0>         0.1475
     28 H7         -1.7160    0.1502    0.9257 H         1 <0>         0.1430
     29 H8         -3.6517   -1.6836   -0.6637 H         1 <0>         0.0817
     30 H9         -4.0711   -0.0155   -0.2056 H         1 <0>         0.0780
     31 H10        -5.6602   -1.3693   -0.1507 H         1 <0>         0.1197
     32 H11        -8.0469   -1.9649   -0.1671 H         1 <0>         0.1277
     33 H12        -9.3614   -1.7386   -2.2343 H         1 <0>         0.1261
     34 H13        -5.8924   -0.3032   -4.2819 H         1 <0>         0.1294
     35 H14        -9.3966   -1.1181   -4.5691 H         1 <0>         0.4047
     36 H15        -8.0328   -0.5582   -5.3750 H         1 <0>         0.4022
     37 H16        -2.4563    1.7386   -0.7475 H         1 <0>         0.3904
     38 H17         2.5868   -0.9250   -0.1593 H         1 <0>         0.1110
     39 H18         2.5652    0.5302    0.8627 H         1 <0>         0.1244
     40 H19         4.0795   -1.6629    1.4887 H         1 <0>         0.1625
     41 H20         3.3430   -0.6314    2.7594 H         1 <0>         0.1562
     42 H21        -0.3607   -2.4052    1.8676 H         1 <0>         0.1664
     43 H22         0.5865   -2.8084    0.3941 H         1 <0>         0.1623
     44 H23         0.3584   -0.8170   -0.9089 H         1 <0>         0.4282
@<TRIPOS>BOND
     1    1    2 1
     2    1   24 1
     3    1   25 1
     4    1   26 1
     5    2    3 1
     6    2   16 1
     7    2   44 1
     8    3    4 1
     9    3   27 1
    10    3   28 1
    11    4    5 1
    12    4    6 1
    13    4   15 1
    14    6    7 1
    15    6   29 1
    16    6   30 1
    17    7    8 1
    18    8   13 ar
    19    8    9 ar
    20    9   10 ar
    21    9   31 1
    22   10   11 ar
    23   10   32 1
    24   11   12 ar
    25   11   33 1
    26   12   13 ar
    27   12   14 1
    28   13   34 1
    29   14   35 1
    30   14   36 1
    31   15   37 1
    32   16   17 1
    33   16   23 1
    34   16   18 1
    35   18   19 1
    36   18   38 1
    37   18   39 1
    38   19   20 1
    39   19   40 1
    40   19   41 1
    41   20   21 2
    42   20   22 2
    43   20   23 1
    44   23   42 1
    45   23   43 1
@<TRIPOS>MOLECULE
ZINC37581529
   41    41     0     0     0
SMALL
USER_CHARGES

@<TRIPOS>ATOM
      1 C1         -0.0436    1.4929   -0.5374 C.3       1 <0>        -0.1284
      2 C2         -0.0125   -0.0084   -0.4099 C.ar      1 <0>        -0.0242
      3 C3         -0.5478   -0.7976   -1.4124 C.ar      1 <0>        -0.1143
      4 C4         -0.5233   -2.1763   -1.3030 C.ar      1 <0>        -0.0148
      5 C5          0.0365   -2.7733   -0.1919 C.ar      1 <0>        -0.6453
      6 C6          0.5784   -1.9832    0.8223 C.ar      1 <0>         0.0918
      7 C7          0.5547   -0.5929    0.7035 C.ar      1 <0>        -0.1017
      8 C8          1.1603   -2.5964    1.9781 C.1       1 <0>        -0.0073
      9 C9          1.6374   -3.0991    2.9257 C.1       1 <0>        -0.2504
     10 C10         2.2356   -3.7293    4.1139 C.3       1 <0>         0.1371
     11 N1          2.7298   -2.6877    5.0242 N.4       1 <0>        -0.6374
     12 S1          0.0662   -4.5297   -0.0542 S.o2      1 <0>         2.6874
     13 O1         -0.3242   -4.8394    1.2766 O.2       1 <0>        -0.9455
     14 O2         -0.6232   -5.0377   -1.1881 O.2       1 <0>        -0.9429
     15 N2          1.6448   -5.0061   -0.2073 N.pl3     1 <0>        -0.9772
     16 C11         2.4301   -5.3335    0.9853 C.3       1 <0>         0.0816
     17 C12         2.2560   -5.1003   -1.5354 C.3       1 <0>         0.0914
     18 C13         2.9886   -3.8198   -1.8432 C.2       1 <0>         0.4870
     19 O3          2.9992   -2.9174   -1.0329 O.2       1 <0>        -0.5292
     20 N3          3.6320   -3.6774   -3.0188 N.am      1 <0>        -0.7297
     21 C14         4.3442   -2.4326   -3.3180 C.3       1 <0>         0.0870
     22 H1          0.8598    1.8333   -1.0435 H         1 <0>         0.0848
     23 H2         -0.9182    1.7904   -1.1160 H         1 <0>         0.0805
     24 H3         -0.0948    1.9409    0.4549 H         1 <0>         0.0753
     25 H4         -0.9871   -0.3351   -2.2840 H         1 <0>         0.1429
     26 H5         -0.9434   -2.7867   -2.0886 H         1 <0>         0.1516
     27 H6          0.9763    0.0241    1.4832 H         1 <0>         0.1348
     28 H7          1.4830   -4.3305    4.6241 H         1 <0>         0.1615
     29 H8          3.0645   -4.3677    3.8081 H         1 <0>         0.1556
     30 H9          3.4265   -2.1312    4.5520 H         1 <0>         0.4388
     31 H10         1.9626   -2.0967    5.3073 H         1 <0>         0.4395
     32 H11         2.4003   -6.4097    1.1558 H         1 <0>         0.0685
     33 H12         3.4629   -5.0174    0.8383 H         1 <0>         0.0737
     34 H13         2.0115   -4.8170    1.8490 H         1 <0>         0.0749
     35 H14         2.9579   -5.9340   -1.5541 H         1 <0>         0.1233
     36 H15         1.4789   -5.2628   -2.2823 H         1 <0>         0.1259
     37 H16         3.6236   -4.3991   -3.6669 H         1 <0>         0.4071
     38 H17         3.6423   -1.5989   -3.2993 H         1 <0>         0.0607
     39 H18         5.1213   -2.2701   -2.5712 H         1 <0>         0.0600
     40 H19         4.7989   -2.5027   -4.3062 H         1 <0>         0.0806
     41 H20         3.1399   -3.1197    5.8387 H         1 <0>         0.4452
@<TRIPOS>BOND
     1    1    2 1
     2    1   22 1
     3    1   23 1
     4    1   24 1
     5    2    7 ar
     6    2    3 ar
     7    3    4 ar
     8    3   25 1
     9    4    5 ar
    10    4   26 1
    11    5    6 ar
    12    5   12 1
    13    6    7 ar
    14    6    8 1
    15    7   27 1
    16    8    9 3
    17    9   10 1
    18   10   11 1
    19   10   28 1
    20   10   29 1
    21   11   30 1
    22   11   31 1
    23   11   41 1
    24   12   13 2
    25   12   14 2
    26   12   15 1
    27   15   16 1
    28   15   17 1
    29   16   32 1
    30   16   33 1
    31   16   34 1
    32   17   18 1
    33   17   35 1
    34   17   36 1
    35   18   19 2
    36   18   20 am
    37   20   21 1
    38   20   37 1
    39   21   38 1
    40   21   39 1
    41   21   40 1
@<TRIPOS>MOLECULE
ZINC44253305
   34    35     0     0     0
SMALL
USER_CHARGES

@<TRIPOS>ATOM
      1 C1         -0.0167    1.3803    0.0096 C.ar      1 <0>        -0.0534
      2 C2          1.1669    2.0890    0.0021 C.ar      1 <0>        -0.0728
      3 C3          2.3849    1.4077   -0.0132 C.ar      1 <0>         0.0276
      4 C4          2.3973    0.0116   -0.0208 C.ar      1 <0>        -0.0230
      5 C5          1.2075   -0.6858   -0.0132 C.ar      1 <0>        -0.0442
      6 C6          0.0021   -0.0041    0.0020 C.ar      1 <0>        -0.0241
      7 Cl1        -1.4914   -0.8889    0.0116 Cl        1 <0>        -0.0127
      8 N1          3.6849   -0.7186   -0.0375 N.pl3     1 <0>         0.0346
      9 O1          3.6943   -1.9275   -0.0441 O.2       1 <0>        -0.1373
     10 O2          4.7272   -0.1060   -0.0446 O.3       1 <0>        -0.1502
     11 C7          3.6564    2.1610   -0.0218 C.2       1 <0>         0.0574
     12 C8          3.9718    3.1842   -0.8595 C.2       1 <0>        -0.1679
     13 C9          5.2728    3.6035   -0.5163 C.2       1 <0>        -0.1298
     14 C10         5.6827    2.8237    0.5031 C.2       1 <0>        -0.0851
     15 O3          4.7016    1.9568    0.8028 O.3       1 <0>        -0.1472
     16 C11         7.0180    2.9132    1.1959 C.3       1 <0>         0.1607
     17 H1          7.4578    3.8935    1.0120 H         1 <0>         0.1755
     18 C12         7.9483    1.8268    0.6527 C.3       1 <0>        -0.1767
     19 C13         9.3198    1.9926    1.2548 C.2       1 <0>         0.5161
     20 O4          9.5323    2.8913    2.0410 O.2       1 <0>        -0.5609
     21 N2         10.3103    1.1423    0.9196 N.am      1 <0>        -0.8302
     22 N3          6.8338    2.7226    2.6408 N.4       1 <0>        -0.6374
     23 H2         -0.9598    1.9064    0.0260 H         1 <0>         0.1674
     24 H3          1.1510    3.1689    0.0077 H         1 <0>         0.1668
     25 H4          1.2158   -1.7658   -0.0195 H         1 <0>         0.1733
     26 H5          3.3464    3.5959   -1.6377 H         1 <0>         0.1679
     27 H6          5.8349    4.3993   -0.9822 H         1 <0>         0.1691
     28 H7          7.5528    0.8454    0.9146 H         1 <0>         0.1330
     29 H8          8.0146    1.9142   -0.4318 H         1 <0>         0.1508
     30 H9         10.1403    0.4235    0.2908 H         1 <0>         0.4142
     31 H10        11.1930    1.2491    1.3072 H         1 <0>         0.4175
     32 H11         6.4267    1.8152    2.8111 H         1 <0>         0.4346
     33 H12         7.7278    2.7825    3.1047 H         1 <0>         0.4459
     34 H13         6.2203    3.4390    2.9990 H         1 <0>         0.4401
@<TRIPOS>BOND
     1    1    6 ar
     2    1    2 ar
     3    1   23 1
     4    2    3 ar
     5    2   24 1
     6    3    4 ar
     7    3   11 1
     8    4    5 ar
     9    4    8 1
    10    5    6 ar
    11    5   25 1
    12    6    7 1
    13    8    9 2
    14    8   10 1
    15   11   15 1
    16   11   12 2
    17   12   13 1
    18   12   26 1
    19   13   14 2
    20   13   27 1
    21   14   15 1
    22   14   16 1
    23   16   17 1
    24   16   18 1
    25   16   22 1
    26   18   19 1
    27   18   28 1
    28   18   29 1
    29   19   20 2
    30   19   21 am
    31   21   30 1
    32   21   31 1
    33   22   32 1
    34   22   33 1
    35   22   34 1
@<TRIPOS>MOLECULE
ZINC43715521
   35    36     0     0     0
SMALL
USER_CHARGES

@<TRIPOS>ATOM
      1 C1         -0.0151    1.3801    0.0428 C.ar      1 <0>        -0.0139
      2 C2          1.0826    1.9548   -0.5716 C.ar      1 <0>        -0.1044
      3 C3          2.2901    1.2836   -0.6001 C.ar      1 <0>        -0.0093
      4 C4          2.4003    0.0300   -0.0100 C.ar      1 <0>         0.1256
      5 C5          1.2963   -0.5431    0.6060 C.ar      1 <0>        -0.0150
      6 C6          0.0918    0.1332    0.6305 C.ar      1 <0>        -0.6535
      7 S1         -1.3098   -0.5940    1.4123 S.o2      1 <0>         2.7021
      8 O1         -0.8080   -1.5249    2.3614 O.2       1 <0>        -0.9534
      9 O2         -2.1721    0.4753    1.7763 O.2       1 <0>        -0.9477
     10 N1         -2.1096   -1.4761    0.2614 N.pl3     1 <0>        -1.2439
     11 N2          3.6217   -0.6533   -0.0373 N.am      1 <0>        -0.6604
     12 C7          3.6441   -1.9975    0.0571 C.2       1 <0>         0.5181
     13 O3          2.6046   -2.6224    0.0646 O.2       1 <0>        -0.4584
     14 C8          4.9608   -2.7243    0.1532 C.3       1 <0>         0.0548
     15 H1          5.5358   -2.3267    0.9896 H         1 <0>         0.1213
     16 C9          5.7474   -2.5309   -1.1456 C.3       1 <0>        -0.0408
     17 N3          7.0046   -3.2880   -1.0716 N.4       1 <0>        -0.5025
     18 C10         6.7057   -4.7147   -0.8863 C.3       1 <0>        -0.0479
     19 C11         5.9173   -4.9040    0.4120 C.3       1 <0>         0.0337
     20 O4          4.7224   -4.1196    0.3578 O.3       1 <0>        -0.3252
     21 Cl1         3.6675    2.0048   -1.3724 Cl        1 <0>        -0.0457
     22 H2         -0.9568    1.9083    0.0675 H         1 <0>         0.1617
     23 H3          0.9958    2.9290   -1.0298 H         1 <0>         0.1573
     24 H4          1.3786   -1.5172    1.0651 H         1 <0>         0.1734
     25 H5         -2.6109   -2.2661    0.5174 H         1 <0>         0.4259
     26 H6         -2.0769   -1.2027   -0.6687 H         1 <0>         0.4181
     27 H7          4.4519   -0.1592   -0.1241 H         1 <0>         0.4144
     28 H8          5.1550   -2.8912   -1.9866 H         1 <0>         0.1525
     29 H9          5.9680   -1.4723   -1.2830 H         1 <0>         0.1501
     30 H10         7.5244   -3.1614   -1.9270 H         1 <0>         0.4418
     31 H11         6.1129   -5.0742   -1.7274 H         1 <0>         0.1454
     32 H12         7.6377   -5.2773   -0.8312 H         1 <0>         0.1533
     33 H13         5.6572   -5.9559    0.5298 H         1 <0>         0.1526
     34 H14         6.5254   -4.5818    1.2573 H         1 <0>         0.0885
     35 H15         7.5524   -2.9551   -0.2924 H         1 <0>         0.4315
@<TRIPOS>BOND
     1    1    6 ar
     2    1    2 ar
     3    1   22 1
     4    2    3 ar
     5    2   23 1
     6    3    4 ar
     7    3   21 1
     8    4    5 ar
     9    4   11 1
    10    5    6 ar
    11    5   24 1
    12    6    7 1
    13    7    8 2
    14    7    9 2
    15    7   10 1
    16   10   25 1
    17   10   26 1
    18   11   12 am
    19   11   27 1
    20   12   13 2
    21   12   14 1
    22   14   15 1
    23   14   20 1
    24   14   16 1
    25   16   17 1
    26   16   28 1
    27   16   29 1
    28   17   18 1
    29   17   30 1
    30   17   35 1
    31   18   19 1
    32   18   31 1
    33   18   32 1
    34   19   20 1
    35   19   33 1
    36   19   34 1
@<TRIPOS>MOLECULE
ZINC48385224
   43    44     0     0     0
SMALL
USER_CHARGES

@<TRIPOS>ATOM
      1 C1          0.5950    1.5052   -0.1118 C.3       1 <0>        -0.1719
      2 C2          0.6160   -0.0015   -0.1316 C.2       1 <0>         0.5120
      3 O1          1.1590   -0.6124    0.7647 O.2       1 <0>        -0.5296
      4 N1          0.0313   -0.6703   -1.1452 N.am      1 <0>        -0.6660
      5 C3          0.1327   -2.0678   -1.2142 C.ar      1 <0>         0.1086
      6 C4          0.1463   -2.8210   -0.0494 C.ar      1 <0>        -0.0668
      7 C5          0.2466   -4.1971   -0.1165 C.ar      1 <0>        -0.1326
      8 C6          0.3340   -4.8295   -1.3497 C.ar      1 <0>         0.1750
      9 C7          0.3207   -4.0796   -2.5178 C.ar      1 <0>        -0.2147
     10 C8          0.2140   -2.7004   -2.4526 C.ar      1 <0>         0.1236
     11 O2          0.1947   -1.9643   -3.5956 O.3       1 <0>        -0.3135
     12 C9          0.2818   -2.6797   -4.8296 C.3       1 <0>         0.0278
     13 N2          0.4361   -6.2253   -1.4151 N.am      1 <0>        -0.6772
     14 C10        -0.2134   -6.9913   -0.5163 C.2       1 <0>         0.7096
     15 O3         -0.8204   -6.4712    0.3999 O.2       1 <0>        -0.5595
     16 N3         -0.1902   -8.3338   -0.6331 N.am      1 <0>        -0.7457
     17 C11        -0.8962   -9.1664    0.3438 C.3       1 <0>         0.1217
     18 C12        -0.7119  -10.6420   -0.0158 C.3       1 <0>         0.0827
     19 N4         -1.4179  -11.4747    0.9611 N.pl3     1 <0>        -0.4088
     20 C13        -0.9034  -11.9699    2.1289 C.2       1 <0>         0.0278
     21 C14        -1.8863  -12.6766    2.7190 C.2       1 <0>         0.0068
     22 N5         -2.9713  -12.6146    1.9329 N.pl3     1 <0>        -0.4742
     23 C15        -2.6997  -11.8921    0.8806 C.cat     1 <0>         0.2935
     24 H1          1.4744    1.8877   -0.6298 H         1 <0>         0.0996
     25 H2         -0.3052    1.8626   -0.6117 H         1 <0>         0.0839
     26 H3          0.6006    1.8551    0.9205 H         1 <0>         0.0989
     27 H4         -0.4595   -0.1854   -1.8269 H         1 <0>         0.4156
     28 H5          0.0788   -2.3312    0.9108 H         1 <0>         0.1520
     29 H6          0.2575   -4.7819    0.7914 H         1 <0>         0.1444
     30 H7          0.3891   -4.5716   -3.4768 H         1 <0>         0.1362
     31 H8          1.2154   -3.2415   -4.8587 H         1 <0>         0.0568
     32 H9         -0.5593   -3.3683   -4.9105 H         1 <0>         0.0561
     33 H10         0.2557   -1.9750   -5.6608 H         1 <0>         0.1047
     34 H11         0.9743   -6.6403   -2.1072 H         1 <0>         0.4089
     35 H12         0.2941   -8.7487   -1.3641 H         1 <0>         0.4037
     36 H13        -0.4913   -8.9816    1.3388 H         1 <0>         0.0858
     37 H14        -1.9578   -8.9194    0.3319 H         1 <0>         0.0835
     38 H15        -1.1168  -10.8268   -1.0108 H         1 <0>         0.1294
     39 H16         0.3497  -10.8890   -0.0039 H         1 <0>         0.1324
     40 H17         0.0983  -11.8224    2.5047 H         1 <0>         0.2250
     41 H18        -1.8136  -13.2013    3.6601 H         1 <0>         0.2258
     42 H19        -3.3856  -11.6675    0.0772 H         1 <0>         0.2617
     43 H20        -3.8244  -13.0370    2.1191 H         1 <0>         0.4669
@<TRIPOS>BOND
     1    1    2 1
     2    1   24 1
     3    1   25 1
     4    1   26 1
     5    2    3 2
     6    2    4 am
     7    4    5 1
     8    4   27 1
     9    5   10 ar
    10    5    6 ar
    11    6    7 ar
    12    6   28 1
    13    7    8 ar
    14    7   29 1
    15    8    9 ar
    16    8   13 1
    17    9   10 ar
    18    9   30 1
    19   10   11 1
    20   11   12 1
    21   12   31 1
    22   12   32 1
    23   12   33 1
    24   13   14 am
    25   13   34 1
    26   14   15 2
    27   14   16 am
    28   16   17 1
    29   16   35 1
    30   17   18 1
    31   17   36 1
    32   17   37 1
    33   18   19 1
    34   18   38 1
    35   18   39 1
    36   19   23 1
    37   19   20 1
    38   20   21 2
    39   20   40 1
    40   21   22 1
    41   21   41 1
    42   22   23 2
    43   22   43 1
    44   23   42 1
@<TRIPOS>MOLECULE
ZINC09729398
   55    59     0     0     0
SMALL
USER_CHARGES
N-(6-bromo-2-oxo-1,3-dihydrobenzoimidazol-5-yl)-2-[2-(2,6-dioxabicyclo[5.4.0]undeca-7,9,11-trien-9-yl)pyrrolidin-1-yl]-acetamide
@<TRIPOS>ATOM
      1 C1         -3.9155    2.2563    1.4408 C.ar      1 <0>        -0.1128
      2 C2         -5.0438    2.5058    2.2023 C.ar      1 <0>        -0.1018
      3 C3         -5.0710    3.5994    3.0505 C.ar      1 <0>         0.0976
      4 C4         -3.9704    4.4407    3.1357 C.ar      1 <0>         0.0817
      5 C5         -2.8413    4.1849    2.3770 C.ar      1 <0>        -0.0860
      6 C6         -2.8196    3.0942    1.5256 C.ar      1 <0>        -0.1336
      7 C7         -1.5950    2.8157    0.6928 C.3       1 <0>         0.0829
      8 H1         -0.9581    3.6987    0.6401 H         1 <0>         0.1546
      9 C8         -0.8094    1.6052    1.2614 C.3       1 <0>        -0.1355
     10 C9         -0.0339    1.0886    0.0278 C.3       1 <0>        -0.1448
     11 C10        -0.8125    1.6187   -1.1904 C.3       1 <0>        -0.0114
     12 C11        -2.3006    3.5085   -1.5321 C.3       1 <0>        -0.0237
     13 C12        -2.8542    3.0100   -2.8420 C.2       1 <0>         0.5079
     14 O1         -2.9693    1.8184   -3.0376 O.2       1 <0>        -0.5078
     15 N1         -3.2214    3.8880   -3.7963 N.am      1 <0>        -0.6421
     16 C13        -3.6469    3.4248   -5.0483 C.ar      1 <0>         0.1617
     17 C14        -4.3652    2.2418   -5.1411 C.ar      1 <0>        -0.0965
     18 C15        -4.7896    1.7890   -6.3802 C.ar      1 <0>         0.1274
     19 C16        -4.4830    2.5180   -7.5314 C.ar      1 <0>         0.0996
     20 C17        -3.7599    3.6969   -7.4331 C.ar      1 <0>        -0.0540
     21 C18        -3.3434    4.1489   -6.1961 C.ar      1 <0>        -0.1033
     22 Br1        -2.3571    5.7568   -6.0630 Br        1 <0>        -0.0188
     23 N2         -5.0297    1.8194   -8.6074 N.am      1 <0>        -0.6366
     24 H2         -4.9795    2.0826   -9.5397 H         1 <0>         0.4432
     25 C19        -5.6397    0.7176   -8.1314 C.2       1 <0>         0.6872
     26 O2         -6.2186   -0.1109   -8.8092 O.2       1 <0>        -0.5327
     27 N3         -5.5123    0.6713   -6.7920 N.am      1 <0>        -0.6373
     28 H3         -5.8641   -0.0222   -6.2122 H         1 <0>         0.4411
     29 O3         -4.0072    5.5164    3.9746 O.3       1 <0>        -0.3159
     30 C20        -4.0197    5.2185    5.3722 C.3       1 <0>         0.0603
     31 C21        -5.4354    4.9378    5.8510 C.3       1 <0>        -0.1932
     32 C22        -6.0237    3.6870    5.2170 C.3       1 <0>         0.0606
     33 O4         -6.1774    3.8577    3.8065 O.3       1 <0>        -0.3170
     34 H4         -3.8911    1.4038    0.7782 H         1 <0>         0.1287
     35 H5         -5.8992    1.8499    2.1355 H         1 <0>         0.1489
     36 H6         -1.9824    4.8360    2.4463 H         1 <0>         0.1476
     37 H7         -1.4932    0.8427    1.6343 H         1 <0>         0.1016
     38 H8         -0.1209    1.9236    2.0443 H         1 <0>         0.1215
     39 H9         -0.0169   -0.0013    0.0209 H         1 <0>         0.1080
     40 H10         0.9825    1.4822    0.0278 H         1 <0>         0.1067
     41 H11        -0.1779    2.2842   -1.7757 H         1 <0>         0.1309
     42 H12        -1.1467    0.7856   -1.8088 H         1 <0>         0.1441
     43 H13        -3.0425    4.1374   -1.0399 H         1 <0>         0.1647
     44 H14        -1.3971    4.0895   -1.7171 H         1 <0>         0.1656
     45 H15        -3.1911    4.8407   -3.6163 H         1 <0>         0.4245
     46 H16        -4.5966    1.6774   -4.2499 H         1 <0>         0.1575
     47 H17        -3.5227    4.2613   -8.3228 H         1 <0>         0.1547
     48 H18        -3.3978    4.3428    5.5580 H         1 <0>         0.0612
     49 H19        -3.6162    6.0678    5.9237 H         1 <0>         0.1145
     50 H20        -5.4237    4.8127    6.9337 H         1 <0>         0.1009
     51 H21        -6.0680    5.7895    5.6011 H         1 <0>         0.0902
     52 H22        -5.3603    2.8431    5.4061 H         1 <0>         0.0617
     53 H23        -6.9980    3.4839    5.6614 H         1 <0>         0.1150
     54 N4         -1.9617    2.3488   -0.6535 N.4       1 <0>        -0.3808
     55 H24        -2.7734    1.7228   -0.5944 H         1 <0>         0.4315
@<TRIPOS>BOND
     1    1    6 ar
     2    1    2 ar
     3    1   34 1
     4    2    3 ar
     5    2   35 1
     6    3   33 1
     7    3    4 ar
     8    4    5 ar
     9    4   29 1
    10    5    6 ar
    11    5   36 1
    12    6    7 1
    13    7    8 1
    14    7    9 1
    15    7   54 1
    16    9   10 1
    17    9   37 1
    18    9   38 1
    19   10   11 1
    20   10   39 1
    21   10   40 1
    22   11   41 1
    23   11   42 1
    24   11   54 1
    25   12   13 1
    26   12   43 1
    27   12   44 1
    28   12   54 1
    29   13   14 2
    30   13   15 am
    31   15   16 1
    32   15   45 1
    33   16   21 ar
    34   16   17 ar
    35   17   18 ar
    36   17   46 1
    37   18   27 1
    38   18   19 ar
    39   19   20 ar
    40   19   23 1
    41   20   21 ar
    42   20   47 1
    43   21   22 1
    44   23   24 1
    45   23   25 am
    46   25   26 2
    47   25   27 am
    48   27   28 1
    49   29   30 1
    50   30   31 1
    51   30   48 1
    52   30   49 1
    53   31   32 1
    54   31   50 1
    55   31   51 1
    56   32   33 1
    57   32   52 1
    58   32   53 1
    59   54   55 1
@<TRIPOS>MOLECULE
ZINC12998642
   60    64     0     0     0
SMALL
USER_CHARGES
N-(3,4-dihydro-2H-1,5-benzodioxepin-7-ylcarbamoyl)-2-[4-(1H-indol-3-yl)-3,6-dihydro-2H-pyridin-1-yl]acetamide
@<TRIPOS>ATOM
      1 C1          5.5089   -4.8146    0.7216 C.ar      1 <0>        -0.1326
      2 C2          6.7789   -5.2515    0.3721 C.ar      1 <0>        -0.0940
      3 C3          7.6572   -4.4105   -0.2754 C.ar      1 <0>        -0.1225
      4 C4          7.2692   -3.1100   -0.5834 C.ar      1 <0>         0.0924
      5 C5          5.9819   -2.6743   -0.2271 C.ar      1 <0>        -0.0898
      6 C6          5.1085   -3.5409    0.4276 C.ar      1 <0>        -0.0806
      7 C7          5.8849   -1.2776   -0.6842 C.2       1 <0>        -0.1820
      8 C8          7.0729   -0.9767   -1.2692 C.2       1 <0>         0.0897
      9 N1          7.9030   -2.0579   -1.2083 N.pl3     1 <0>        -0.5854
     10 H1          8.8075   -2.0834   -1.5578 H         1 <0>         0.4229
     11 C9          4.7210   -0.3815   -0.5402 C.2       1 <0>        -0.0099
     12 C10         3.6810   -0.5658   -1.3259 C.2       1 <0>        -0.1835
     13 C11         2.4497    0.2920   -1.2690 C.3       1 <0>         0.0307
     14 C12         3.6848    1.7443    0.2096 C.3       1 <0>         0.0013
     15 C13         4.7713    0.7051    0.4975 C.3       1 <0>        -0.1133
     16 C14         1.2804    1.9798    0.0132 C.3       1 <0>        -0.0233
     17 C15        -0.0143    1.2085    0.0128 C.2       1 <0>         0.5107
     18 O1          0.0023   -0.0036   -0.0024 O.2       1 <0>        -0.4480
     19 N2         -1.1906    1.8663    0.0238 N.am      1 <0>        -0.6748
     20 C16        -2.3485    1.1766    0.0178 C.2       1 <0>         0.6931
     21 O2         -2.3319   -0.0387    0.0026 O.2       1 <0>        -0.4952
     22 N3         -3.5247    1.8344    0.0287 N.am      1 <0>        -0.6657
     23 C17        -4.7268    1.1220   -0.0752 C.ar      1 <0>         0.1493
     24 C18        -5.8024    1.6726   -0.7590 C.ar      1 <0>        -0.1274
     25 C19        -6.9886    0.9704   -0.8685 C.ar      1 <0>        -0.0953
     26 C20        -7.1046   -0.2799   -0.2849 C.ar      1 <0>         0.0633
     27 C21        -6.0332   -0.8305    0.4039 C.ar      1 <0>         0.0875
     28 C22        -4.8430   -0.1320    0.5108 C.ar      1 <0>        -0.1151
     29 O3         -6.1602   -2.0641    0.9737 O.3       1 <0>        -0.3161
     30 C23        -7.0539   -2.1498    2.0855 C.3       1 <0>         0.0605
     31 C24        -8.4860   -2.3447    1.6127 C.3       1 <0>        -0.1905
     32 C25        -9.0055   -1.1477    0.8319 C.3       1 <0>         0.0600
     33 O4         -8.2735   -0.9791   -0.3837 O.3       1 <0>        -0.3173
     34 H2          4.8319   -5.4857    1.2293 H         1 <0>         0.1270
     35 H3          7.0818   -6.2604    0.6103 H         1 <0>         0.1313
     36 H4          8.6437   -4.7593   -0.5428 H         1 <0>         0.1254
     37 H5          4.1188   -3.2071    0.7025 H         1 <0>         0.1180
     38 H6          7.3237   -0.0246   -1.7130 H         1 <0>         0.1742
     39 H7          3.7150   -1.3709   -2.0449 H         1 <0>         0.1507
     40 H8          1.5652   -0.3409   -1.3414 H         1 <0>         0.1507
     41 H9          2.4616    0.9925   -2.1039 H         1 <0>         0.1384
     42 H10         3.9469    2.3100   -0.6845 H         1 <0>         0.1380
     43 H11         3.5904    2.4203    1.0594 H         1 <0>         0.1382
     44 H12         4.6067    0.2722    1.4842 H         1 <0>         0.1070
     45 H13         5.7488    1.1867    0.4712 H         1 <0>         0.1256
     46 H14         1.3232    2.6182   -0.8692 H         1 <0>         0.1692
     47 H15         1.3359    2.5961    0.9106 H         1 <0>         0.1683
     48 H16        -1.2038    2.8361    0.0359 H         1 <0>         0.4206
     49 H17        -3.5392    2.8010    0.1086 H         1 <0>         0.4147
     50 H18        -5.7111    2.6499   -1.2096 H         1 <0>         0.1389
     51 H19        -7.8234    1.3976   -1.4042 H         1 <0>         0.1457
     52 H20        -4.0091   -0.5597    1.0474 H         1 <0>         0.1509
     53 H21        -6.9904   -1.2310    2.6685 H         1 <0>         0.0581
     54 H22        -6.7653   -2.9933    2.7127 H         1 <0>         0.1079
     55 H23        -9.1257   -2.5048    2.4806 H         1 <0>         0.0950
     56 H24        -8.5304   -3.2281    0.9757 H         1 <0>         0.0870
     57 H25        -8.9016   -0.2496    1.4408 H         1 <0>         0.0588
     58 H26       -10.0588   -1.3025    0.5979 H         1 <0>         0.1089
     59 N4          2.4108    1.0235    0.0108 N.4       1 <0>        -0.3855
     60 H27         2.2822    0.3523    0.7771 H         1 <0>         0.4381
@<TRIPOS>BOND
     1    1    6 ar
     2    1    2 ar
     3    1   34 1
     4    2    3 ar
     5    2   35 1
     6    3    4 ar
     7    3   36 1
     8    4    9 1
     9    4    5 ar
    10    5    6 ar
    11    5    7 1
    12    6   37 1
    13    7    8 2
    14    7   11 1
    15    8    9 1
    16    8   38 1
    17    9   10 1
    18   11   15 1
    19   11   12 2
    20   12   13 1
    21   12   39 1
    22   13   40 1
    23   13   41 1
    24   13   59 1
    25   14   15 1
    26   14   42 1
    27   14   43 1
    28   14   59 1
    29   15   44 1
    30   15   45 1
    31   16   17 1
    32   16   46 1
    33   16   47 1
    34   16   59 1
    35   17   18 2
    36   17   19 am
    37   19   20 am
    38   19   48 1
    39   20   21 2
    40   20   22 am
    41   22   23 1
    42   22   49 1
    43   23   28 ar
    44   23   24 ar
    45   24   25 ar
    46   24   50 1
    47   25   26 ar
    48   25   51 1
    49   26   33 1
    50   26   27 ar
    51   27   28 ar
    52   27   29 1
    53   28   52 1
    54   29   30 1
    55   30   31 1
    56   30   53 1
    57   30   54 1
    58   31   32 1
    59   31   55 1
    60   31   56 1
    61   32   33 1
    62   32   57 1
    63   32   58 1
    64   59   60 1
@<TRIPOS>MOLECULE
ZINC37769913
   36    37     0     0     0
SMALL
USER_CHARGES

@<TRIPOS>ATOM
      1 C1         -1.5734   -1.4464    4.7044 C.3       1 <0>         0.0339
      2 O1         -1.1480   -2.1253    3.5212 O.3       1 <0>        -0.3392
      3 C2         -2.0225   -2.1765    2.4973 C.2       1 <0>         0.5182
      4 O2         -3.1164   -1.6588    2.6061 O.2       1 <0>        -0.5026
      5 C3         -1.6522   -2.8604    1.2453 C.ar      1 <0>        -0.1138
      6 C4         -0.4480   -3.5646    1.1587 C.ar      1 <0>        -0.0058
      7 C5         -0.1075   -4.2026   -0.0149 C.ar      1 <0>        -0.0941
      8 C6         -0.9538   -4.1493   -1.1118 C.ar      1 <0>        -0.0135
      9 C7         -2.1465   -3.4571   -1.0411 C.ar      1 <0>        -0.0911
     10 C8         -2.5090   -2.8133    0.1355 C.ar      1 <0>         0.2244
     11 N1         -3.7145   -2.1191    0.2108 N.am      1 <0>        -0.6432
     12 C9         -4.8825   -2.7839    0.1092 C.2       1 <0>         0.5177
     13 O3         -4.8858   -3.9931    0.0155 O.2       1 <0>        -0.4955
     14 C10        -6.1843   -2.0249    0.1121 C.3       1 <0>         0.0109
     15 H1         -6.0859   -1.1180   -0.4845 H         1 <0>         0.1727
     16 C11        -6.5767   -1.6610    1.5595 C.3       1 <0>        -0.1249
     17 C12        -8.1164   -1.8514    1.5627 C.3       1 <0>         0.0961
     18 H2         -8.6193   -0.9722    1.1600 H         1 <0>         0.1045
     19 C13        -8.2832   -3.0675    0.6178 C.3       1 <0>        -0.0441
     20 N2         -7.2599   -2.8715   -0.4359 N.4       1 <0>        -0.4978
     21 O4         -8.5921   -2.1534    2.8758 O.3       1 <0>        -0.5323
     22 Br1        -3.2913   -3.3919   -2.5448 Br        1 <0>        -0.0120
     23 Br2         1.5224   -5.1547   -0.1295 Br        1 <0>         0.0030
     24 H3         -0.7772   -1.4787    5.4481 H         1 <0>         0.1129
     25 H4         -1.8046   -0.4085    4.4646 H         1 <0>         0.0674
     26 H5         -2.4630   -1.9340    5.1032 H         1 <0>         0.0661
     27 H6          0.2150   -3.6085    2.0100 H         1 <0>         0.1678
     28 H7         -0.6784   -4.6520   -2.0272 H         1 <0>         0.1625
     29 H8         -3.7133   -1.1573    0.3364 H         1 <0>         0.4295
     30 H9         -6.1030   -2.3393    2.2693 H         1 <0>         0.1177
     31 H10        -6.3159   -0.6261    1.7810 H         1 <0>         0.1332
     32 H11        -8.1000   -3.9961    1.1584 H         1 <0>         0.1451
     33 H12        -9.2810   -3.0733    0.1792 H         1 <0>         0.1477
     34 H13        -7.6753   -2.4175   -1.2355 H         1 <0>         0.4381
     35 H14        -9.5493   -2.2810    2.9277 H         1 <0>         0.4013
     36 H15        -6.8811   -3.7648   -0.7129 H         1 <0>         0.4390
@<TRIPOS>BOND
     1    1    2 1
     2    1   24 1
     3    1   25 1
     4    1   26 1
     5    2    3 1
     6    3    4 2
     7    3    5 1
     8    5   10 ar
     9    5    6 ar
    10    6    7 ar
    11    6   27 1
    12    7    8 ar
    13    7   23 1
    14    8    9 ar
    15    8   28 1
    16    9   10 ar
    17    9   22 1
    18   10   11 1
    19   11   12 am
    20   11   29 1
    21   12   13 2
    22   12   14 1
    23   14   15 1
    24   14   20 1
    25   14   16 1
    26   16   17 1
    27   16   30 1
    28   16   31 1
    29   17   18 1
    30   17   19 1
    31   17   21 1
    32   19   20 1
    33   19   32 1
    34   19   33 1
    35   20   34 1
    36   20   36 1
    37   21   35 1
@<TRIPOS>MOLECULE
ZINC44714177
   66    69     0     0     0
SMALL
USER_CHARGES

@<TRIPOS>ATOM
      1 C1         -2.8886    2.9662   -2.5253 C.3       1 <0>        -0.1027
      2 C2         -1.5284    3.0486   -1.8816 C.2       1 <0>         0.1118
      3 C3         -0.5950    2.0691   -1.8609 C.2       1 <0>        -0.2573
      4 C4          0.5191    2.5509   -1.1659 C.2       1 <0>         0.0843
      5 N1          0.2637    3.7757   -0.7831 N.2       1 <0>        -0.2836
      6 N2         -1.0208    4.1144   -1.2278 N.pl3     1 <0>        -0.4694
      7 H1         -1.4674    4.9641   -1.0883 H         1 <0>         0.4430
      8 C5          1.7932    1.7904   -0.9026 C.3       1 <0>        -0.0867
      9 C6         -0.7319    0.7007   -2.4772 C.3       1 <0>         0.2268
     10 H2         -1.5753    0.6959   -3.1677 H         1 <0>         0.0936
     11 C7         -0.9692   -0.3336   -1.3751 C.3       1 <0>        -0.1631
     12 N3          0.4959    0.3673   -3.2037 N.am      1 <0>        -0.7234
     13 C8          0.4584   -0.5168   -4.2202 C.2       1 <0>         0.5140
     14 O1         -0.5917   -1.0365   -4.5335 O.2       1 <0>        -0.5122
     15 C9          1.7213   -0.8598   -4.9675 C.3       1 <0>        -0.1153
     16 H3          2.5880   -0.7548   -4.3148 H         1 <0>         0.1152
     17 C10         1.6411   -2.2974   -5.5281 C.3       1 <0>         0.1189
     18 N4          1.1595   -2.1302   -6.9196 N.am      1 <0>        -0.6189
     19 C11         1.8644   -0.9221   -7.4111 C.3       1 <0>         0.1029
     20 C12         1.8716    0.0394   -6.2060 C.3       1 <0>        -0.0719
     21 C13         3.1909    0.8033   -6.1476 C.3       1 <0>        -0.1353
     22 C14         3.2909    1.7339   -7.3595 C.3       1 <0>        -0.0097
     23 N5          2.1599    2.6697   -7.3550 N.4       1 <0>        -0.5054
     24 C15         0.8996    1.9324   -7.5054 C.3       1 <0>        -0.0089
     25 C16         0.6984    1.0102   -6.2996 C.3       1 <0>        -0.1485
     26 C17         0.2797   -2.9023   -7.5876 C.2       1 <0>         0.5421
     27 O2         -0.2748   -3.8197   -7.0203 O.2       1 <0>        -0.5098
     28 C18        -0.0150   -2.6258   -9.0394 C.3       1 <0>        -0.0960
     29 H4          0.0270   -1.5523   -9.2237 H         1 <0>         0.0844
     30 C19        -1.4108   -3.1552   -9.3921 C.3       1 <0>        -0.1047
     31 C20        -1.7540   -2.7052  -10.8139 C.3       1 <0>        -0.0935
     32 C21        -0.6216   -3.0257  -11.7450 C.2       1 <0>        -0.1486
     33 C22         0.5822   -3.2990  -11.3558 C.2       1 <0>        -0.1617
     34 C23         1.0146   -3.3393   -9.9183 C.3       1 <0>        -0.0766
     35 H5         -2.8211    3.2988   -3.5611 H         1 <0>         0.0823
     36 H6         -3.2422    1.9356   -2.4969 H         1 <0>         0.0910
     37 H7         -3.5862    3.6048   -1.9834 H         1 <0>         0.0791
     38 H8          2.4948    1.9634   -1.7186 H         1 <0>         0.0737
     39 H9          2.2336    2.1324    0.0340 H         1 <0>         0.0835
     40 H10         1.5726    0.7252   -0.8328 H         1 <0>         0.0827
     41 H11        -1.0682   -1.3234   -1.8208 H         1 <0>         0.0650
     42 H12        -0.1258   -0.3288   -0.6846 H         1 <0>         0.0605
     43 H13        -1.8826   -0.0856   -0.8346 H         1 <0>         0.0686
     44 H14         1.3357    0.7829   -2.9531 H         1 <0>         0.3973
     45 H15         2.6263   -2.7638   -5.5204 H         1 <0>         0.0859
     46 H16         0.9337   -2.8919   -4.9500 H         1 <0>         0.1007
     47 H17         2.8844   -1.1699   -7.7048 H         1 <0>         0.0865
     48 H18         1.3234   -0.4799   -8.2477 H         1 <0>         0.0832
     49 H19         3.2296    1.3932   -5.2318 H         1 <0>         0.0974
     50 H20         4.0211    0.0972   -6.1616 H         1 <0>         0.1230
     51 H21         4.2252    2.2934   -7.3116 H         1 <0>         0.1401
     52 H22         3.2689    1.1421   -8.2746 H         1 <0>         0.1330
     53 H23         2.1489    3.1778   -6.4834 H         1 <0>         0.4283
     54 H24         0.0710    2.6381   -7.5651 H         1 <0>         0.1375
     55 H25         0.9344    1.3358   -8.4169 H         1 <0>         0.1324
     56 H26        -0.2287    0.4500   -6.4206 H         1 <0>         0.1242
     57 H27         0.6469    1.6076   -5.3893 H         1 <0>         0.0974
     58 H28        -1.4131   -4.2441   -9.3418 H         1 <0>         0.0795
     59 H29        -2.1432   -2.7515   -8.6932 H         1 <0>         0.0720
     60 H30        -2.6541   -3.2210  -11.1487 H         1 <0>         0.0815
     61 H31        -1.9330   -1.6301  -10.8192 H         1 <0>         0.0730
     62 H32        -0.8238   -3.0287  -12.8059 H         1 <0>         0.1082
     63 H33         1.3240   -3.5080  -12.1124 H         1 <0>         0.1097
     64 H34         1.9816   -2.8471   -9.8141 H         1 <0>         0.0727
     65 H35         1.1039   -4.3778   -9.5996 H         1 <0>         0.0827
     66 H36         2.2606    3.3205   -8.1195 H         1 <0>         0.4338
@<TRIPOS>BOND
     1    1    2 1
     2    1   35 1
     3    1   36 1
     4    1   37 1
     5    2    6 1
     6    2    3 2
     7    3    4 1
     8    3    9 1
     9    4    5 2
    10    4    8 1
    11    5    6 1
    12    6    7 1
    13    8   38 1
    14    8   39 1
    15    8   40 1
    16    9   10 1
    17    9   11 1
    18    9   12 1
    19   11   41 1
    20   11   42 1
    21   11   43 1
    22   12   13 am
    23   12   44 1
    24   13   14 2
    25   13   15 1
    26   15   16 1
    27   15   20 1
    28   15   17 1
    29   17   18 1
    30   17   45 1
    31   17   46 1
    32   18   19 1
    33   18   26 am
    34   19   20 1
    35   19   47 1
    36   19   48 1
    37   20   25 1
    38   20   21 1
    39   21   22 1
    40   21   49 1
    41   21   50 1
    42   22   23 1
    43   22   51 1
    44   22   52 1
    45   23   24 1
    46   23   53 1
    47   23   66 1
    48   24   25 1
    49   24   54 1
    50   24   55 1
    51   25   56 1
    52   25   57 1
    53   26   27 2
    54   26   28 1
    55   28   29 1
    56   28   34 1
    57   28   30 1
    58   30   31 1
    59   30   58 1
    60   30   59 1
    61   31   32 1
    62   31   60 1
    63   31   61 1
    64   32   33 2
    65   32   62 1
    66   33   34 1
    67   33   63 1
    68   34   64 1
    69   34   65 1
@<TRIPOS>MOLECULE
ZINC40069265
   57    61     0     0     0
SMALL
USER_CHARGES

@<TRIPOS>ATOM
      1 C1          0.0515    1.1572    1.4201 C.ar      1 <0>        -0.1486
      2 C2          1.2364    1.8894    1.5208 C.ar      1 <0>         0.0475
      3 C3          2.4452    1.3333    1.2604 C.ar      1 <0>        -0.2049
      4 C4          2.5263   -0.0293    0.8736 C.ar      1 <0>         0.3151
      5 N1          3.5601   -0.7902    0.5714 N.pl3     1 <0>        -0.5989
      6 C5          3.0883   -2.1374    0.2371 C.3       1 <0>         0.0779
      7 C6          1.5826   -2.1002    0.3789 C.2       1 <0>         0.1345
      8 C7          1.2744   -0.7965    0.7690 C.ar      1 <0>        -0.1418
      9 C8          0.0528   -0.1509    1.0555 C.ar      1 <0>        -0.0118
     10 C9          0.6837   -3.1559    0.1627 C.2       1 <0>         0.2601
     11 N2         -0.6169   -3.0369    0.2069 N.2       1 <0>        -0.1739
     12 N3         -1.2483   -4.2597   -0.0493 N.pl3     1 <0>        -0.5840
     13 C10        -0.1773   -5.2436   -0.2778 C.3       1 <0>         0.3701
     14 H1         -0.2486   -5.6582   -1.2834 H         1 <0>         0.1370
     15 N4          1.0652   -4.4673   -0.1333 N.pl3     1 <0>        -0.6071
     16 C11         2.4338   -4.9715   -0.2701 C.3       1 <0>         0.0755
     17 C12         2.6099   -6.4311   -0.6936 C.3       1 <0>        -0.1588
     18 C13         2.9086   -6.0112    0.7470 C.3       1 <0>        -0.1896
     19 S1         -0.2571   -6.5674    0.9599 S.3       1 <0>        -0.1644
     20 C14        -0.0923   -5.6980    2.5435 C.3       1 <0>        -0.1216
     21 C15        -0.1433   -6.6956    3.6718 C.2       1 <0>         0.5314
     22 O1         -0.2776   -7.8768    3.4314 O.2       1 <0>        -0.5085
     23 N5         -0.0397   -6.2753    4.9482 N.am      1 <0>        -0.6053
     24 C16         0.1172   -4.8471    5.2555 C.3       1 <0>         0.1036
     25 C17         1.3525   -4.6667    6.1434 C.3       1 <0>        -0.1338
     26 C18         1.2253   -5.5647    7.3761 C.3       1 <0>        -0.1043
     27 C19         1.1554   -7.0292    6.9375 C.3       1 <0>        -0.1227
     28 H2          2.0511   -7.2822    6.3702 H         1 <0>         0.1034
     29 C20        -0.0877   -7.2358    6.0589 C.3       1 <0>         0.1220
     30 C21         1.0635   -7.9146    8.1535 C.2       1 <0>         0.5227
     31 O2          1.0547   -7.4231    9.2622 O.2       1 <0>        -0.5332
     32 N6          0.9912   -9.2527    8.0089 N.am      1 <0>        -0.8530
     33 H3         -0.8879    1.6417    1.6419 H         1 <0>         0.1558
     34 H4          1.1885    2.9278    1.8139 H         1 <0>         0.1608
     35 H5          3.3439    1.9261    1.3468 H         1 <0>         0.1607
     36 H6          3.3626   -2.3876   -0.7876 H         1 <0>         0.1723
     37 H7          3.5123   -2.8658    0.9283 H         1 <0>         0.1730
     38 H8         -0.8775   -0.6951    0.9855 H         1 <0>         0.1605
     39 H9         -2.2037   -4.4260   -0.0718 H         1 <0>         0.4682
     40 H10         3.1666   -4.2502   -0.6319 H         1 <0>         0.1333
     41 H11         1.7074   -7.0163   -0.8704 H         1 <0>         0.1104
     42 H12         3.4586   -6.6704   -1.3344 H         1 <0>         0.1157
     43 H13         3.9538   -5.9742    1.0540 H         1 <0>         0.1093
     44 H14         2.2027   -6.3201    1.5179 H         1 <0>         0.1110
     45 H15         0.8598   -5.1682    2.5697 H         1 <0>         0.1076
     46 H16        -0.9086   -4.9840    2.6526 H         1 <0>         0.1102
     47 H17         0.2474   -4.2863    4.3300 H         1 <0>         0.0786
     48 H18        -0.7668   -4.4874    5.7819 H         1 <0>         0.0797
     49 H19         2.2463   -4.9419    5.5835 H         1 <0>         0.0680
     50 H20         1.4257   -3.6256    6.4577 H         1 <0>         0.0847
     51 H21         2.0914   -5.4199    8.0218 H         1 <0>         0.0808
     52 H22         0.3182   -5.3055    7.9222 H         1 <0>         0.0776
     53 H23        -0.9881   -7.0669    6.6495 H         1 <0>         0.0808
     54 H24        -0.0927   -8.2516    5.6636 H         1 <0>         0.1020
     55 H25         0.9982   -9.6457    7.1222 H         1 <0>         0.4030
     56 H26         0.9320   -9.8226    8.7916 H         1 <0>         0.4066
     57 H27         4.4868   -0.5036    0.5701 H         1 <0>         0.4551
@<TRIPOS>BOND
     1    1    9 ar
     2    1    2 ar
     3    1   33 1
     4    2    3 ar
     5    2   34 1
     6    3    4 ar
     7    3   35 1
     8    4    8 ar
     9    4    5 2
    10    5    6 1
    11    5   57 1
    12    6    7 1
    13    6   36 1
    14    6   37 1
    15    7    8 2
    16    7   10 1
    17    8    9 ar
    18    9   38 1
    19   10   15 1
    20   10   11 2
    21   11   12 1
    22   12   13 1
    23   12   39 1
    24   13   14 1
    25   13   15 1
    26   13   19 1
    27   15   16 1
    28   16   18 1
    29   16   17 1
    30   16   40 1
    31   17   18 1
    32   17   41 1
    33   17   42 1
    34   18   43 1
    35   18   44 1
    36   19   20 1
    37   20   21 1
    38   20   45 1
    39   20   46 1
    40   21   22 2
    41   21   23 am
    42   23   29 1
    43   23   24 1
    44   24   25 1
    45   24   47 1
    46   24   48 1
    47   25   26 1
    48   25   49 1
    49   25   50 1
    50   26   27 1
    51   26   51 1
    52   26   52 1
    53   27   28 1
    54   27   29 1
    55   27   30 1
    56   29   53 1
    57   29   54 1
    58   30   31 2
    59   30   32 am
    60   32   55 1
    61   32   56 1
@<TRIPOS>MOLECULE
ZINC04177714
   64    67     0     0     0
SMALL
USER_CHARGES
8-[4-[(3,5-dimethyl-1-piperidyl)sulfonyl]benzoyl]amino-4-methyl-7-thia-4-azabicyclo[4.3.0]nona-8,10-diene-9-carboxamide
@<TRIPOS>ATOM
      1 C1         -5.7488   -7.7859   -1.7776 C.3       1 <0>        -0.1543
      2 C2         -6.3755   -9.1697   -1.9596 C.3       1 <0>        -0.1076
      3 H1         -7.4110   -9.0606   -2.2818 H         1 <0>         0.0870
      4 C3         -5.5912   -9.9507   -3.0165 C.3       1 <0>        -0.1089
      5 C4         -4.1295  -10.0754   -2.5807 C.3       1 <0>        -0.1083
      6 H2         -3.7041   -9.0810   -2.4453 H         1 <0>         0.0758
      7 C5         -4.0589  -10.8462   -1.2587 C.3       1 <0>         0.1216
      8 N1         -4.9266  -10.1816   -0.2769 N.pl3     1 <0>        -0.9905
      9 C6         -6.3318   -9.9353   -0.6284 C.3       1 <0>         0.1210
     10 S1         -4.3339   -9.7249    1.2004 S.o2      1 <0>         2.6830
     11 O1         -3.2102  -10.5547    1.4613 O.2       1 <0>        -0.9444
     12 O2         -5.4476   -9.6519    2.0799 O.2       1 <0>        -0.9429
     13 C7         -3.7185   -8.0827    1.0299 C.ar      1 <0>        -0.6429
     14 C8         -4.5560   -7.0059    1.2613 C.ar      1 <0>        -0.0199
     15 C9         -4.0806   -5.7176    1.1295 C.ar      1 <0>        -0.0665
     16 C10        -2.7512   -5.5017    0.7618 C.ar      1 <0>        -0.0927
     17 C11        -1.9132   -6.5927    0.5242 C.ar      1 <0>        -0.1030
     18 C12        -2.4000   -7.8758    0.6647 C.ar      1 <0>        -0.0220
     19 C13        -2.2350   -4.1243    0.6188 C.2       1 <0>         0.5616
     20 O3         -2.9684   -3.1762    0.8215 O.2       1 <0>        -0.4819
     21 N2         -0.9512   -3.9192    0.2636 N.am      1 <0>        -0.6153
     22 C14        -0.4673   -2.6280    0.1296 C.2       1 <0>         0.1024
     23 C15         0.8119   -2.2183   -0.2243 C.2       1 <0>        -0.2364
     24 C16         1.0617   -0.7911   -0.2931 C.2       1 <0>        -0.0386
     25 C17         0.0021   -0.0041    0.0020 C.2       1 <0>        -0.3197
     26 S2         -1.3110   -1.1323    0.3641 S.3       1 <0>         0.3323
     27 C18        -0.0182    1.4925    0.0102 C.3       1 <0>         0.1089
     28 C19         2.1512    1.2975   -1.0509 C.3       1 <0>         0.0023
     29 C20         2.3999   -0.1637   -0.6655 C.3       1 <0>        -0.0908
     30 C21         1.4302    3.4315   -0.1620 C.3       1 <0>        -0.0410
     31 C22         1.8692   -3.1911   -0.5166 C.2       1 <0>         0.5747
     32 O4          2.5888   -3.5950    0.3781 O.2       1 <0>        -0.5198
     33 N3          2.0443   -3.6380   -1.7760 N.am      1 <0>        -0.8449
     34 C23        -3.3393  -10.8278   -3.6533 C.3       1 <0>        -0.1495
     35 H3         -5.7785   -7.2462   -2.7242 H         1 <0>         0.0582
     36 H4         -6.3077   -7.2300   -1.0247 H         1 <0>         0.0546
     37 H5         -4.7136   -7.8955   -1.4542 H         1 <0>         0.0564
     38 H6         -5.6424   -9.4240   -3.9694 H         1 <0>         0.0669
     39 H7         -6.0231  -10.9453   -3.1276 H         1 <0>         0.0690
     40 H8         -3.0318  -10.8523   -0.8937 H         1 <0>         0.0904
     41 H9         -4.3983  -11.8706   -1.4120 H         1 <0>         0.0820
     42 H10        -6.8543  -10.8861   -0.7332 H         1 <0>         0.0826
     43 H11        -6.8049   -9.3402    0.1527 H         1 <0>         0.0925
     44 H12        -5.5840   -7.1743    1.5460 H         1 <0>         0.1543
     45 H13        -4.7354   -4.8779    1.3101 H         1 <0>         0.1524
     46 H14        -0.8851   -6.4325    0.2351 H         1 <0>         0.1337
     47 H15        -1.7516   -8.7207    0.4855 H         1 <0>         0.1525
     48 H16        -0.3660   -4.6757    0.1019 H         1 <0>         0.4267
     49 H17        -0.5397    1.8580   -0.8744 H         1 <0>         0.1452
     50 H18        -0.5227    1.8484    0.9085 H         1 <0>         0.1423
     51 H19         3.1072    1.8055   -1.1781 H         1 <0>         0.1384
     52 H20         1.5968    1.3346   -1.9887 H         1 <0>         0.1346
     53 H21         3.0775   -0.2090    0.1870 H         1 <0>         0.1094
     54 H22         2.8348   -0.6986   -1.5098 H         1 <0>         0.1214
     55 H23         0.8440    3.9059    0.6250 H         1 <0>         0.1258
     56 H24         2.4653    3.7666   -0.0963 H         1 <0>         0.1258
     57 H25         1.0209    3.7046   -1.1347 H         1 <0>         0.1255
     58 H26         1.4708   -3.3161   -2.4890 H         1 <0>         0.4049
     59 H27         2.7438   -4.2816   -1.9694 H         1 <0>         0.4108
     60 H28        -3.7662  -11.8214   -3.7891 H         1 <0>         0.0606
     61 H29        -3.3898  -10.2790   -4.5938 H         1 <0>         0.0595
     62 H30        -2.2989  -10.9189   -3.3412 H         1 <0>         0.0579
     63 N4          1.3877    1.9651    0.0232 N.4       1 <0>        -0.3969
     64 H31         1.8107    1.7309    0.9290 H         1 <0>         0.4339
@<TRIPOS>BOND
     1    1    2 1
     2    1   35 1
     3    1   36 1
     4    1   37 1
     5    2    3 1
     6    2    9 1
     7    2    4 1
     8    4    5 1
     9    4   38 1
    10    4   39 1
    11    5    6 1
    12    5    7 1
    13    5   34 1
    14    7    8 1
    15    7   40 1
    16    7   41 1
    17    8    9 1
    18    8   10 1
    19    9   42 1
    20    9   43 1
    21   10   11 2
    22   10   12 2
    23   10   13 1
    24   13   18 ar
    25   13   14 ar
    26   14   15 ar
    27   14   44 1
    28   15   16 ar
    29   15   45 1
    30   16   17 ar
    31   16   19 1
    32   17   18 ar
    33   17   46 1
    34   18   47 1
    35   19   20 2
    36   19   21 am
    37   21   22 1
    38   21   48 1
    39   22   26 1
    40   22   23 2
    41   23   24 1
    42   23   31 1
    43   24   29 1
    44   24   25 2
    45   25   26 1
    46   25   27 1
    47   27   49 1
    48   27   50 1
    49   27   63 1
    50   28   29 1
    51   28   51 1
    52   28   52 1
    53   28   63 1
    54   29   53 1
    55   29   54 1
    56   30   55 1
    57   30   56 1
    58   30   57 1
    59   30   63 1
    60   31   32 2
    61   31   33 am
    62   33   58 1
    63   33   59 1
    64   34   60 1
    65   34   61 1
    66   34   62 1
    67   63   64 1
@<TRIPOS>MOLECULE
ZINC20295031
   60    62     0     0     0
SMALL
USER_CHARGES
isopropyl 5-carbamoyl-2-[[2-[4-(3-chlorophenyl)piperazin-1-yl]acetyl]amino]-4-methyl-thiophene-3-carboxylate
@<TRIPOS>ATOM
      1 C1         -1.2207    1.9065   -7.3340 C.3       1 <0>        -0.1074
      2 C2         -1.4810    2.0865   -5.8606 C.2       1 <0>         0.0117
      3 C3         -0.6478    1.5163   -4.9097 C.2       1 <0>        -0.1832
      4 C4         -0.9565    1.7299   -3.5621 C.2       1 <0>         0.0674
      5 S1         -2.3880    2.7038   -3.6424 S.3       1 <0>         0.2873
      6 C5         -2.5473    2.8186   -5.4143 C.2       1 <0>        -0.2657
      7 C6         -3.5682    3.5179   -6.1972 C.2       1 <0>         0.6084
      8 O1         -3.5284    3.4888   -7.4135 O.2       1 <0>        -0.5208
      9 N1         -4.5520    4.1937   -5.5712 N.am      1 <0>        -0.8695
     10 N2         -0.2884    1.2723   -2.4431 N.am      1 <0>        -0.6056
     11 C7         -0.7416    1.5850   -1.2129 C.2       1 <0>         0.5000
     12 O2         -1.7358    2.2681   -1.0885 O.2       1 <0>        -0.4971
     13 C8         -0.0127    1.0858    0.0080 C.3       1 <0>        -0.0197
     14 N3         -0.7003    1.5596    1.2166 N.4       1 <0>        -0.3924
     15 C9         -0.6117    3.0218    1.3340 C.3       1 <0>        -0.0098
     16 C10        -1.4055    3.4815    2.5591 C.3       1 <0>         0.0285
     17 N4         -0.8702    2.8262    3.7606 N.pl3     1 <0>        -0.4863
     18 C11        -0.9588    1.3640    3.6433 C.3       1 <0>         0.0199
     19 C12        -0.1650    0.9043    2.4181 C.3       1 <0>         0.0008
     20 C13        -1.5239    3.2767    4.9098 C.ar      1 <0>         0.1009
     21 C14        -2.1483    2.3690    5.7564 C.ar      1 <0>        -0.1608
     22 C15        -2.7894    2.8165    6.8947 C.ar      1 <0>        -0.0762
     23 C16        -2.8202    4.1677    7.1872 C.ar      1 <0>        -0.1184
     24 C17        -2.2040    5.0754    6.3437 C.ar      1 <0>        -0.0099
     25 C18        -1.5560    4.6331    5.2055 C.ar      1 <0>        -0.1232
     26 Cl1        -2.2451    6.7707    6.7150 Cl        1 <0>        -0.0490
     27 C19         0.5176    0.7168   -5.3036 C.2       1 <0>         0.5251
     28 O3          0.4050   -0.4831   -5.4660 O.2       1 <0>        -0.4832
     29 O4          1.7135    1.3125   -5.4857 O.3       1 <0>        -0.3476
     30 C20         2.8223    0.4597   -5.8749 C.3       1 <0>         0.0792
     31 C21         2.8917    0.3782   -7.4012 C.3       1 <0>        -0.1768
     32 C22         4.1292    1.0444   -5.3355 C.3       1 <0>        -0.1517
     33 H1         -0.3212    1.2891   -7.4747 H         1 <0>         0.0591
     34 H2         -1.0673    2.8901   -7.8021 H         1 <0>         0.0940
     35 H3         -2.0836    1.4089   -7.8007 H         1 <0>         0.0931
     36 H4         -5.3189    4.7190   -6.1594 H         1 <0>         0.4391
     37 H5         -4.5881    4.2200   -4.4721 H         1 <0>         0.4142
     38 H6          0.6135    0.6527   -2.5560 H         1 <0>         0.4597
     39 H7          0.0022   -0.0141    0.0020 H         1 <0>         0.1720
     40 H8          1.0193    1.4665    0.0002 H         1 <0>         0.1688
     41 H9          0.4419    3.3174    1.4464 H         1 <0>         0.1378
     42 H10        -1.0289    3.4883    0.4294 H         1 <0>         0.1530
     43 H11        -1.3168    4.5728    2.6651 H         1 <0>         0.1310
     44 H12        -2.4640    3.2102    2.4331 H         1 <0>         0.0751
     45 H13        -0.5415    0.8976    4.5480 H         1 <0>         0.1352
     46 H14        -2.0123    1.0683    3.5310 H         1 <0>         0.0759
     47 H15        -0.2536   -0.1869    2.3109 H         1 <0>         0.1450
     48 H16         0.8937    1.1757    2.5429 H         1 <0>         0.1425
     49 H17        -2.1288    1.3140    5.5266 H         1 <0>         0.1336
     50 H18        -3.2716    2.1107    7.5548 H         1 <0>         0.1404
     51 H19        -3.3264    4.5154    8.0756 H         1 <0>         0.1409
     52 H20        -1.0751    5.3416    4.5473 H         1 <0>         0.1384
     53 H21         2.6269   -0.5308   -5.4383 H         1 <0>         0.0869
     54 H22         3.7317   -0.2679   -7.6961 H         1 <0>         0.0826
     55 H23         3.0412    1.3861   -7.8158 H         1 <0>         0.0724
     56 H24         1.9521   -0.0422   -7.7890 H         1 <0>         0.0640
     57 H25         4.9692    0.3983   -5.6304 H         1 <0>         0.0861
     58 H26         4.0793    1.1030   -4.2382 H         1 <0>         0.0613
     59 H27         4.2787    2.0522   -5.7501 H         1 <0>         0.0730
     60 H28        -1.7629    1.2897    1.1272 H         1 <0>         0.4496
@<TRIPOS>BOND
     1    1    2 1
     2    1   33 1
     3    1   34 1
     4    1   35 1
     5    2    6 2
     6    2    3 1
     7    3    4 2
     8    3   27 1
     9    4    5 1
    10    4   10 1
    11    5    6 1
    12    6    7 1
    13    7    8 2
    14    7    9 am
    15    9   36 1
    16    9   37 1
    17   10   11 am
    18   10   38 1
    19   11   12 2
    20   11   13 1
    21   13   14 1
    22   13   39 1
    23   13   40 1
    24   14   19 1
    25   14   15 1
    26   14   60 1
    27   15   16 1
    28   15   41 1
    29   15   42 1
    30   16   17 1
    31   16   43 1
    32   16   44 1
    33   17   18 1
    34   17   20 1
    35   18   19 1
    36   18   45 1
    37   18   46 1
    38   19   47 1
    39   19   48 1
    40   20   25 ar
    41   20   21 ar
    42   21   22 ar
    43   21   49 1
    44   22   23 ar
    45   22   50 1
    46   23   24 ar
    47   23   51 1
    48   24   25 ar
    49   24   26 1
    50   25   52 1
    51   27   28 2
    52   27   29 1
    53   29   30 1
    54   30   31 1
    55   30   32 1
    56   30   53 1
    57   31   54 1
    58   31   55 1
    59   31   56 1
    60   32   57 1
    61   32   58 1
    62   32   59 1
@<TRIPOS>MOLECULE
ZINC39344702
   66    70     0     0     0
SMALL
USER_CHARGES

@<TRIPOS>ATOM
      1 C1         -0.0184    1.5028    0.0103 C.3       1 <0>        -0.1790
      2 C2          0.0021   -0.0041    0.0020 C.2       1 <0>         0.5232
      3 O1          1.0605   -0.5961   -0.0113 O.2       1 <0>        -0.5244
      4 N1         -1.1558   -0.6938    0.0094 N.am      1 <0>        -0.7310
      5 C3         -1.1360   -2.1586    0.0013 C.3       1 <0>         0.2002
      6 H1         -0.2814   -2.5300    0.5669 H         1 <0>         0.1549
      7 C4         -1.0962   -2.6781   -1.4170 C.ar      1 <0>        -0.1383
      8 C5         -0.1639   -2.5102   -2.4233 C.ar      1 <0>         0.0028
      9 C6         -0.3981   -3.1206   -3.6544 C.ar      1 <0>         0.1853
     10 C7         -1.5539   -3.8692   -3.8186 C.ar      1 <0>         0.0382
     11 N2         -2.4187   -4.0060   -2.8356 N.ar      1 <0>        -0.4477
     12 C8         -2.2336   -3.4396   -1.6432 C.ar      1 <0>         0.3964
     13 N3         -3.0476   -3.4900   -0.5135 N.pl3     1 <0>        -0.5693
     14 C9         -2.4468   -2.7167    0.5801 C.3       1 <0>         0.1490
     15 H2         -2.2387   -3.3631    1.4328 H         1 <0>         0.1586
     16 C10        -3.3601   -1.5895    0.9879 C.2       1 <0>         0.4444
     17 O2         -4.2678   -1.2554    0.2638 O.2       1 <0>        -0.4774
     18 O3         -3.1651   -0.9566    2.1554 O.3       1 <0>        -0.3366
     19 C11        -4.0686    0.1025    2.4780 C.3       1 <0>         0.0287
     20 C12        -4.3198   -4.2116   -0.4286 C.3       1 <0>         0.1208
     21 C13        -4.0640   -5.6413    0.0523 C.3       1 <0>        -0.0569
     22 C14        -5.3727   -6.3836    0.1397 C.2       1 <0>        -0.1961
     23 C15        -6.0538   -7.0806   -0.9540 C.ar      1 <0>        -0.1009
     24 C16        -5.7660   -7.2810   -2.3052 C.ar      1 <0>        -0.0844
     25 C17        -6.6296   -7.9993   -3.0835 C.ar      1 <0>        -0.1355
     26 C18        -7.7914   -8.5311   -2.5415 C.ar      1 <0>        -0.0964
     27 C19        -8.0950   -8.3453   -1.2104 C.ar      1 <0>        -0.1206
     28 C20        -7.2301   -7.6179   -0.3996 C.ar      1 <0>         0.0959
     29 N4         -7.2492   -7.2661    0.9315 N.pl3     1 <0>        -0.5899
     30 C21        -6.1324   -6.5363    1.2358 C.2       1 <0>         0.0782
     31 N5          0.5163   -2.9800   -4.7057 N.pl3     1 <0>        -0.7119
     32 C22         0.2564   -3.6275   -5.9940 C.3       1 <0>         0.1562
     33 C23         1.3840   -3.3223   -6.9461 C.ar      1 <0>        -0.0972
     34 C24         1.3228   -2.2012   -7.7530 C.ar      1 <0>        -0.1080
     35 C25         2.3563   -1.9201   -8.6268 C.ar      1 <0>        -0.0879
     36 C26         3.4520   -2.7598   -8.6951 C.ar      1 <0>        -0.1354
     37 C27         3.5144   -3.8826   -7.8876 C.ar      1 <0>         0.1027
     38 C28         2.4812   -4.1599   -7.0082 C.ar      1 <0>        -0.1330
     39 F1          4.5847   -4.7043   -7.9538 F         1 <0>        -0.1320
     40 H3          1.0042    1.8801    0.0026 H         1 <0>         0.1041
     41 H4         -0.5455    1.8639   -0.8728 H         1 <0>         0.0929
     42 H5         -0.5286    1.8543    0.9071 H         1 <0>         0.0962
     43 H6         -2.0023   -0.2203    0.0200 H         1 <0>         0.4043
     44 H7          0.7254   -1.9195   -2.2597 H         1 <0>         0.1743
     45 H8         -1.7475   -4.3471   -4.7675 H         1 <0>         0.2032
     46 H9         -5.0852   -0.2883    2.5229 H         1 <0>         0.0692
     47 H10        -3.7997    0.5275    3.4451 H         1 <0>         0.1158
     48 H11        -4.0101    0.8759    1.7123 H         1 <0>         0.0675
     49 H12        -4.9791   -3.7039    0.2754 H         1 <0>         0.1064
     50 H13        -4.7891   -4.2375   -1.4120 H         1 <0>         0.0905
     51 H14        -3.4047   -6.1490   -0.6516 H         1 <0>         0.0738
     52 H15        -3.5947   -5.6154    1.0358 H         1 <0>         0.0841
     53 H16        -4.8641   -6.8696   -2.7339 H         1 <0>         0.1103
     54 H17        -6.4064   -8.1541   -4.1288 H         1 <0>         0.1247
     55 H18        -8.4644   -9.0959   -3.1695 H         1 <0>         0.1301
     56 H19        -9.0017   -8.7627   -0.7981 H         1 <0>         0.1247
     57 H20        -5.8982   -6.1395    2.2126 H         1 <0>         0.1719
     58 H21        -7.9482   -7.5036    1.5607 H         1 <0>         0.4218
     59 H22         1.3217   -2.4540   -4.5810 H         1 <0>         0.4210
     60 H23         0.1836   -4.7056   -5.8506 H         1 <0>         0.0851
     61 H24        -0.6797   -3.2519   -6.4071 H         1 <0>         0.0863
     62 H25         0.4667   -1.5449   -7.7008 H         1 <0>         0.1329
     63 H26         2.3074   -1.0441   -9.2566 H         1 <0>         0.1405
     64 H27         4.2591   -2.5403   -9.3783 H         1 <0>         0.1427
     65 H28         2.5308   -5.0331   -6.3746 H         1 <0>         0.1388
     66 H29        -3.2172   -4.5363   -2.9840 H         1 <0>         0.4413
@<TRIPOS>BOND
     1    1    2 1
     2    1   40 1
     3    1   41 1
     4    1   42 1
     5    2    3 2
     6    2    4 am
     7    4    5 1
     8    4   43 1
     9    5    6 1
    10    5   14 1
    11    5    7 1
    12    7   12 ar
    13    7    8 ar
    14    8    9 ar
    15    8   44 1
    16    9   10 ar
    17    9   31 1
    18   10   11 ar
    19   10   45 1
    20   11   12 ar
    21   11   66 1
    22   12   13 1
    23   13   14 1
    24   13   20 1
    25   14   15 1
    26   14   16 1
    27   16   17 2
    28   16   18 1
    29   18   19 1
    30   19   46 1
    31   19   47 1
    32   19   48 1
    33   20   21 1
    34   20   49 1
    35   20   50 1
    36   21   51 1
    37   21   52 1
    38   21   22 1
    39   22   23 1
    40   22   30 2
    41   23   24 ar
    42   23   28 ar
    43   24   25 ar
    44   24   53 1
    45   25   26 ar
    46   25   54 1
    47   26   27 ar
    48   26   55 1
    49   27   28 ar
    50   27   56 1
    51   28   29 1
    52   29   58 1
    53   29   30 1
    54   30   57 1
    55   31   32 1
    56   31   59 1
    57   32   33 1
    58   32   60 1
    59   32   61 1
    60   33   38 ar
    61   33   34 ar
    62   34   35 ar
    63   34   62 1
    64   35   36 ar
    65   35   63 1
    66   36   37 ar
    67   36   64 1
    68   37   38 ar
    69   37   39 1
    70   38   65 1
@<TRIPOS>MOLECULE
ZINC44658337
   53    56     0     0     0
SMALL
USER_CHARGES

@<TRIPOS>ATOM
      1 C1          1.0105    1.4354    1.2000 C.3       1 <0>        -0.1624
      2 C2          0.9852   -0.0944    1.2107 C.3       1 <0>        -0.0867
      3 H1          0.9831   -0.4506    2.2408 H         1 <0>         0.1022
      4 C3          2.2044   -0.6219    0.4992 C.2       1 <0>         0.5330
      5 O1          2.1407   -0.9174   -0.6749 O.2       1 <0>        -0.4319
      6 N1          3.3657   -0.7652    1.1681 N.am      1 <0>        -0.6875
      7 C4          4.4561   -1.2370    0.5318 C.2       1 <0>         0.6898
      8 O2          4.3922   -1.5332   -0.6452 O.2       1 <0>        -0.5187
      9 N2          5.6173   -1.3803    1.2007 N.am      1 <0>        -0.7381
     10 C5          6.8026   -1.8931    0.5090 C.3       1 <0>         0.0996
     11 S1         -0.5090   -0.6803    0.3653 S.3       1 <0>        -0.1539
     12 C6         -1.8663   -0.0954    1.4172 C.3       1 <0>         0.3754
     13 H2         -2.8279   -0.3842    0.9929 H         1 <0>         0.1418
     14 N3         -1.7952    1.3655    1.5845 N.pl3     1 <0>        -0.5809
     15 N4         -1.6253    1.6012    2.9538 N.2       1 <0>        -0.1662
     16 C7         -1.5851    0.4815    3.6268 C.2       1 <0>         0.2638
     17 N5         -1.7253   -0.6271    2.7827 N.pl3     1 <0>        -0.5928
     18 C8         -1.7299   -1.9728    3.1599 C.ar      1 <0>         0.1349
     19 C9         -2.9304   -2.6120    3.4431 C.ar      1 <0>        -0.0956
     20 C10        -2.9319   -3.9418    3.8156 C.ar      1 <0>        -0.0976
     21 C11        -1.7391   -4.6374    3.9074 C.ar      1 <0>        -0.0169
     22 C12        -0.5417   -4.0031    3.6263 C.ar      1 <0>        -0.0979
     23 C13        -0.5346   -2.6753    3.2468 C.ar      1 <0>        -0.0951
     24 Cl1        -1.7448   -6.3088    4.3765 Cl        1 <0>        -0.0393
     25 C14        -1.4237    0.4001    5.0185 C.2       1 <0>         0.1305
     26 C15        -1.3828    1.4588    5.9263 C.ar      1 <0>        -0.1372
     27 C16        -1.4818    2.8573    5.7647 C.ar      1 <0>        -0.0135
     28 C17        -1.4069    3.6678    6.8516 C.ar      1 <0>        -0.1463
     29 C18        -1.2326    3.1523    8.1377 C.ar      1 <0>         0.0477
     30 C19        -1.1299    1.8198    8.3664 C.ar      1 <0>        -0.2042
     31 C20        -1.1995    0.9102    7.2798 C.ar      1 <0>         0.3151
     32 N6         -1.1285   -0.4060    7.2382 N.pl3     1 <0>        -0.5951
     33 C21        -1.2642   -0.8543    5.8489 C.3       1 <0>         0.0796
     34 H3          1.9083    1.7875    1.7080 H         1 <0>         0.0718
     35 H4          1.0125    1.7916    0.1699 H         1 <0>         0.0836
     36 H5          0.1286    1.8170    1.7147 H         1 <0>         0.0869
     37 H6          3.4167   -0.5288    2.1074 H         1 <0>         0.4067
     38 H7          5.6683   -1.1439    2.1400 H         1 <0>         0.3996
     39 H8          7.0555   -1.2304   -0.3186 H         1 <0>         0.0655
     40 H9          7.6390   -1.9388    1.2065 H         1 <0>         0.0842
     41 H10         6.5952   -2.8917    0.1245 H         1 <0>         0.0653
     42 H11        -1.8541    2.0335    0.8836 H         1 <0>         0.4713
     43 H12        -3.8615   -2.0694    3.3724 H         1 <0>         0.1430
     44 H13        -3.8649   -4.4392    4.0359 H         1 <0>         0.1494
     45 H14         0.3878   -4.5483    3.6994 H         1 <0>         0.1482
     46 H15         0.3997   -2.1822    3.0225 H         1 <0>         0.1336
     47 H16        -1.6162    3.2812    4.7805 H         1 <0>         0.1616
     48 H17        -1.4837    4.7368    6.7183 H         1 <0>         0.1566
     49 H18        -1.1777    3.8340    8.9735 H         1 <0>         0.1614
     50 H19        -0.9952    1.4519    9.3728 H         1 <0>         0.1613
     51 H20        -2.1434   -1.4896    5.7417 H         1 <0>         0.1703
     52 H21        -0.3694   -1.3960    5.5424 H         1 <0>         0.1686
     53 H22        -1.0087   -0.9863    8.0062 H         1 <0>         0.4554
@<TRIPOS>BOND
     1    1    2 1
     2    1   34 1
     3    1   35 1
     4    1   36 1
     5    2    3 1
     6    2    4 1
     7    2   11 1
     8    4    5 2
     9    4    6 am
    10    6    7 am
    11    6   37 1
    12    7    8 2
    13    7    9 am
    14    9   10 1
    15    9   38 1
    16   10   39 1
    17   10   40 1
    18   10   41 1
    19   11   12 1
    20   12   13 1
    21   12   17 1
    22   12   14 1
    23   14   15 1
    24   14   42 1
    25   15   16 2
    26   16   17 1
    27   16   25 1
    28   17   18 1
    29   18   23 ar
    30   18   19 ar
    31   19   20 ar
    32   19   43 1
    33   20   21 ar
    34   20   44 1
    35   21   22 ar
    36   21   24 1
    37   22   23 ar
    38   22   45 1
    39   23   46 1
    40   25   33 1
    41   25   26 2
    42   26   31 ar
    43   26   27 ar
    44   27   28 ar
    45   27   47 1
    46   28   29 ar
    47   28   48 1
    48   29   30 ar
    49   29   49 1
    50   30   31 ar
    51   30   50 1
    52   31   32 2
    53   32   33 1
    54   32   53 1
    55   33   51 1
    56   33   52 1
@<TRIPOS>MOLECULE
ZINC63948429
   59    63     0     0     0
SMALL
USER_CHARGES

@<TRIPOS>ATOM
      1 C1         -0.0187    1.5258    0.0104 C.3       1 <0>        -0.1696
      2 C2          0.0021   -0.0041    0.0020 C.3       1 <0>         0.1501
      3 H1          0.5123   -0.3556   -0.8948 H         1 <0>         0.1013
      4 C3         -1.4333   -0.5336    0.0129 C.3       1 <0>        -0.1027
      5 C4         -1.4159   -2.0348   -0.1192 C.2       1 <0>         0.0687
      6 C5         -1.4634   -2.9400    0.8847 C.ar      1 <0>        -0.1711
      7 C6         -1.5413   -2.8033    2.3440 C.ar      1 <0>        -0.0216
      8 C7         -1.5739   -3.9197    3.1066 C.ar      1 <0>        -0.1443
      9 C8         -1.5348   -5.2010    2.5397 C.ar      1 <0>         0.0528
     10 C9         -1.4631   -5.4071    1.2076 C.ar      1 <0>        -0.2073
     11 C10        -1.4239   -4.3040    0.3107 C.ar      1 <0>         0.3277
     12 N1         -1.3546   -4.2444   -0.9971 N.pl3     1 <0>        -0.5854
     13 C11        -1.3485   -2.8340   -1.4013 C.3       1 <0>         0.0601
     14 N2          0.7106   -0.4894    1.1889 N.am      1 <0>        -0.7338
     15 C12         2.0538   -0.5998    1.1737 C.2       1 <0>         0.5143
     16 O1          2.6758   -0.2974    0.1774 O.2       1 <0>        -0.5214
     17 C13         2.7826   -1.0990    2.3946 C.3       1 <0>         0.1012
     18 N3          4.2226   -1.1273    2.1261 N.am      1 <0>        -0.7216
     19 C14         5.0781   -1.5425    3.0813 C.2       1 <0>         0.5763
     20 O2          4.6548   -1.8935    4.1657 O.2       1 <0>        -0.5335
     21 C15         6.5281   -1.5709    2.8109 C.ar      1 <0>        -0.1730
     22 C16         7.0302   -1.1650    1.5715 C.ar      1 <0>        -0.0359
     23 C17         8.3755   -1.1890    1.3142 C.ar      1 <0>        -0.1618
     24 C18         9.3017   -1.6217    2.2852 C.ar      1 <0>         0.2100
     25 C19         8.7736   -2.0232    3.5200 C.ar      1 <0>        -0.1493
     26 C20         7.4293   -1.9997    3.7932 C.ar      1 <0>         0.0277
     27 S1         10.1841   -2.4991    4.4937 S.3       1 <0>        -0.1095
     28 C21        11.4867   -2.1592    3.2427 C.3       1 <0>         0.4035
     29 H2         12.0254   -3.0697    2.9802 H         1 <0>         0.1510
     30 N4         10.6777   -1.6793    2.1143 N.pl3     1 <0>        -0.7264
     31 N5         12.4086   -1.1211    3.7102 N.pl3     1 <0>        -0.4580
     32 C22        12.2482    0.2214    3.5347 C.2       1 <0>        -0.0087
     33 C23        13.2985    0.8491    4.1016 C.2       1 <0>        -0.1868
     34 C24        14.1380   -0.1421    4.6471 C.2       1 <0>        -0.1838
     35 C25        13.5658   -1.3375    4.3979 C.2       1 <0>        -0.0100
     36 H3          1.0039    1.9031    0.0027 H         1 <0>         0.0756
     37 H4         -0.5459    1.8868   -0.8726 H         1 <0>         0.0776
     38 H5         -0.5289    1.8773    0.9072 H         1 <0>         0.0682
     39 H6         -1.9156   -0.2570    0.9504 H         1 <0>         0.1170
     40 H7         -1.9862   -0.1019   -0.8214 H         1 <0>         0.1311
     41 H8         -1.5718   -1.8256    2.8020 H         1 <0>         0.1584
     42 H9         -1.6312   -3.8214    4.1806 H         1 <0>         0.1594
     43 H10        -1.5628   -6.0585    3.1956 H         1 <0>         0.1615
     44 H11        -1.4352   -6.4150    0.8208 H         1 <0>         0.1603
     45 H12        -2.2149   -2.6162   -2.0258 H         1 <0>         0.1756
     46 H13        -0.4291   -2.6037   -1.9397 H         1 <0>         0.1725
     47 H14         0.2131   -0.7312    1.9857 H         1 <0>         0.4017
     48 H15         2.5826   -0.4337    3.2345 H         1 <0>         0.1060
     49 H16         2.4385   -2.1044    2.6374 H         1 <0>         0.0995
     50 H17         4.5602   -0.8472    1.2610 H         1 <0>         0.4122
     51 H18         6.3477   -0.8278    0.8053 H         1 <0>         0.1333
     52 H19         8.7343   -0.8701    0.3467 H         1 <0>         0.1342
     53 H20         7.0673   -2.3143    4.7608 H         1 <0>         0.1465
     54 H21        11.0911   -1.4121    1.2785 H         1 <0>         0.4211
     55 H22        11.4227    0.6996    3.0284 H         1 <0>         0.1554
     56 H23        13.4654    1.9157    4.1319 H         1 <0>         0.1395
     57 H24        15.0667    0.0250    5.1724 H         1 <0>         0.1420
     58 H25        13.9578   -2.3004    4.6906 H         1 <0>         0.1664
     59 H26        -1.3176   -5.0055   -1.5973 H         1 <0>         0.4558
@<TRIPOS>BOND
     1    1    2 1
     2    1   36 1
     3    1   37 1
     4    1   38 1
     5    2    3 1
     6    2    4 1
     7    2   14 1
     8    4    5 1
     9    4   39 1
    10    4   40 1
    11    5   13 1
    12    5    6 2
    13    6   11 ar
    14    6    7 ar
    15    7    8 ar
    16    7   41 1
    17    8    9 ar
    18    8   42 1
    19    9   10 ar
    20    9   43 1
    21   10   11 ar
    22   10   44 1
    23   11   12 2
    24   12   13 1
    25   12   59 1
    26   13   45 1
    27   13   46 1
    28   14   15 am
    29   14   47 1
    30   15   16 2
    31   15   17 1
    32   17   18 1
    33   17   48 1
    34   17   49 1
    35   18   19 am
    36   18   50 1
    37   19   20 2
    38   19   21 1
    39   21   26 ar
    40   21   22 ar
    41   22   23 ar
    42   22   51 1
    43   23   24 ar
    44   23   52 1
    45   24   30 1
    46   24   25 ar
    47   25   26 ar
    48   25   27 1
    49   26   53 1
    50   27   28 1
    51   28   29 1
    52   28   30 1
    53   28   31 1
    54   30   54 1
    55   31   35 1
    56   31   32 1
    57   32   33 2
    58   32   55 1
    59   33   34 1
    60   33   56 1
    61   34   35 2
    62   34   57 1
    63   35   58 1
@<TRIPOS>MOLECULE
ZINC07640633
   42    44     0     0     0
SMALL
USER_CHARGES
2-[2-(benzo[1,3]dioxol-5-ylmethyl-methyl-amino)acetyl]aminothiophene-3-carboxamide
@<TRIPOS>ATOM
      1 C1          6.1943   -0.0363    0.1926 C.3       1 <0>        -0.0576
      2 C2          5.1066   -0.6554    2.2653 C.3       1 <0>         0.0553
      3 C3          3.7246   -0.5476    1.6742 C.ar      1 <0>        -0.1601
      4 C4          2.8855   -1.6464    1.6768 C.ar      1 <0>        -0.0752
      5 C5          1.6171   -1.5526    1.1353 C.ar      1 <0>        -0.1009
      6 C6          1.1834   -0.3557    0.5885 C.ar      1 <0>         0.0753
      7 C7          2.0284    0.7513    0.5864 C.ar      1 <0>         0.0387
      8 C8          3.2983    0.6500    1.1309 C.ar      1 <0>        -0.0791
      9 O1          1.3764    1.7966   -0.0014 O.3       1 <0>        -0.3009
     10 C9         -0.0175    1.4357    0.0099 C.3       1 <0>         0.2112
     11 O2          0.0021   -0.0041    0.0020 O.3       1 <0>        -0.2979
     12 C10         7.3579   -1.4183    1.8047 C.3       1 <0>        -0.0190
     13 C11         8.2195   -2.0708    0.7545 C.2       1 <0>         0.4920
     14 O3          7.7895   -2.2327   -0.3678 O.2       1 <0>        -0.4971
     15 N1          9.4680   -2.4743    1.0626 N.am      1 <0>        -0.5862
     16 C12        10.2608   -3.0747    0.0963 C.2       1 <0>         0.0788
     17 C13        11.5620   -3.5477    0.2188 C.2       1 <0>        -0.2266
     18 C14        12.1524   -4.1364   -0.9596 C.2       1 <0>        -0.1144
     19 C15        11.3992   -4.1675   -2.0737 C.2       1 <0>        -0.2109
     20 S1          9.8725   -3.4099   -1.5575 S.3       1 <0>         0.2372
     21 C16        12.2975   -3.4565    1.4839 C.2       1 <0>         0.5894
     22 O4         11.7695   -2.9570    2.4602 O.2       1 <0>        -0.5672
     23 N2         13.5582   -3.9259    1.5657 N.am      1 <0>        -0.8407
     24 H1          6.5612    0.8827    0.6498 H         1 <0>         0.1245
     25 H2          6.9010   -0.3717   -0.5664 H         1 <0>         0.1356
     26 H3          5.2252    0.1499   -0.2702 H         1 <0>         0.1263
     27 H4          5.4083    0.3136    2.6628 H         1 <0>         0.1444
     28 H5          5.1016   -1.3921    3.0687 H         1 <0>         0.1433
     29 H6          3.2220   -2.5802    2.1025 H         1 <0>         0.1481
     30 H7          0.9638   -2.4126    1.1387 H         1 <0>         0.1506
     31 H8          3.9556    1.5069    1.1309 H         1 <0>         0.1451
     32 H9         -0.5191    1.8168   -0.8796 H         1 <0>         0.1448
     33 H10        -0.5019    1.8072    0.9129 H         1 <0>         0.0977
     34 H11         7.8463   -0.5125    2.1640 H         1 <0>         0.1705
     35 H12         7.2140   -2.1079    2.6365 H         1 <0>         0.1683
     36 H13         9.8120   -2.3448    1.9603 H         1 <0>         0.4406
     37 H14        13.1576   -4.5310   -0.9484 H         1 <0>         0.1489
     38 H15        11.6581   -4.5578   -3.0469 H         1 <0>         0.1978
     39 H16        13.9790   -4.3240    0.7877 H         1 <0>         0.4055
     40 H17        14.0448   -3.8656    2.4027 H         1 <0>         0.4103
     41 N3          6.0431   -1.0972    1.2106 N.4       1 <0>        -0.3835
     42 H18         5.6657   -1.9396    0.7610 H         1 <0>         0.4373
@<TRIPOS>BOND
     1    1   24 1
     2    1   25 1
     3    1   26 1
     4    1   41 1
     5    2    3 1
     6    2   27 1
     7    2   28 1
     8    2   41 1
     9    3    8 ar
    10    3    4 ar
    11    4    5 ar
    12    4   29 1
    13    5    6 ar
    14    5   30 1
    15    6   11 1
    16    6    7 ar
    17    7    8 ar
    18    7    9 1
    19    8   31 1
    20    9   10 1
    21   10   11 1
    22   10   32 1
    23   10   33 1
    24   12   13 1
    25   12   34 1
    26   12   35 1
    27   12   41 1
    28   13   14 2
    29   13   15 am
    30   15   16 1
    31   15   36 1
    32   16   20 1
    33   16   17 2
    34   17   18 1
    35   17   21 1
    36   18   19 2
    37   18   37 1
    38   19   20 1
    39   19   38 1
    40   21   22 2
    41   21   23 am
    42   23   39 1
    43   23   40 1
    44   41   42 1
@<TRIPOS>MOLECULE
ZINC37441784
   40    42     0     0     0
SMALL
USER_CHARGES

@<TRIPOS>ATOM
      1 C1         -0.0187    1.5258    0.0104 C.3       1 <0>        -0.1727
      2 C2          0.0021   -0.0041    0.0020 C.3       1 <0>         0.1261
      3 C3          0.7421   -0.5109    1.2415 C.3       1 <0>        -0.1723
      4 N1         -1.3723   -0.5112    0.0124 N.pl3     1 <0>        -0.4610
      5 C4         -2.3254   -0.2729    0.9832 C.ar      1 <0>         0.0860
      6 C5         -2.3357    0.4484    2.1692 C.ar      1 <0>        -0.1065
      7 C6         -3.4797    0.4903    2.9365 C.ar      1 <0>        -0.0556
      8 C7         -4.6239   -0.1845    2.5314 C.ar      1 <0>        -0.0949
      9 C8         -4.6320   -0.9047    1.3582 C.ar      1 <0>        -0.0228
     10 C9         -3.4800   -0.9574    0.5686 C.ar      1 <0>         0.0478
     11 N2         -3.1791   -1.5649   -0.6080 N.2       1 <0>        -0.4612
     12 C10        -1.9482   -1.2990   -0.9352 C.2       1 <0>         0.2100
     13 C11        -1.2595   -1.7951   -2.1805 C.3       1 <0>         0.1397
     14 H1         -0.3447   -1.2248   -2.3414 H         1 <0>         0.1516
     15 C12        -0.9147   -3.2767   -2.0168 C.3       1 <0>        -0.0418
     16 C13        -0.1185   -3.7419   -3.2087 C.2       1 <0>        -0.0487
     17 C14         1.0862   -4.3424   -3.1702 C.2       1 <0>        -0.0084
     18 N3          1.4444   -4.5952   -4.4669 N.pl3     1 <0>        -0.5580
     19 H2          2.2630   -5.0217   -4.7652 H         1 <0>         0.4350
     20 C15         0.4454   -4.1400   -5.2532 C.2       1 <0>         0.2250
     21 N4         -0.4882   -3.6355   -4.4937 N.2       1 <0>        -0.5318
     22 N5         -2.1522   -1.6247   -3.3346 N.4       1 <0>        -0.6249
     23 Br1        -6.1826   -0.1140    3.5998 Br        1 <0>        -0.0210
     24 H3          1.0039    1.9031    0.0027 H         1 <0>         0.0891
     25 H4         -0.5459    1.8868   -0.8726 H         1 <0>         0.0656
     26 H5         -0.5289    1.8773    0.9072 H         1 <0>         0.0733
     27 H6          0.5123   -0.3556   -0.8948 H         1 <0>         0.1032
     28 H7          0.7568   -1.6008    1.2356 H         1 <0>         0.0681
     29 H8          1.7647   -0.1336    1.2338 H         1 <0>         0.0886
     30 H9          0.2319   -0.1594    2.1383 H         1 <0>         0.0726
     31 H10        -1.4491    0.9751    2.4901 H         1 <0>         0.1392
     32 H11        -3.4864    1.0515    3.8592 H         1 <0>         0.1497
     33 H12        -5.5252   -1.4272    1.0492 H         1 <0>         0.1472
     34 H13        -0.3256   -3.4146   -1.1101 H         1 <0>         0.1226
     35 H14        -1.8340   -3.8579   -1.9447 H         1 <0>         0.1130
     36 H15         1.6597   -4.5788   -2.2861 H         1 <0>         0.1856
     37 H16         0.4211   -4.1891   -6.3318 H         1 <0>         0.2204
     38 H17        -1.6911   -1.9568   -4.1684 H         1 <0>         0.4482
     39 H18        -2.9991   -2.1526   -3.1856 H         1 <0>         0.4422
     40 H19        -2.3796   -0.6476   -3.4425 H         1 <0>         0.4321
@<TRIPOS>BOND
     1    1    2 1
     2    1   24 1
     3    1   25 1
     4    1   26 1
     5    2    3 1
     6    2    4 1
     7    2   27 1
     8    3   28 1
     9    3   29 1
    10    3   30 1
    11    4   12 1
    12    4    5 1
    13    5   10 ar
    14    5    6 ar
    15    6    7 ar
    16    6   31 1
    17    7    8 ar
    18    7   32 1
    19    8    9 ar
    20    8   23 1
    21    9   10 ar
    22    9   33 1
    23   10   11 1
    24   11   12 2
    25   12   13 1
    26   13   14 1
    27   13   15 1
    28   13   22 1
    29   15   16 1
    30   15   34 1
    31   15   35 1
    32   16   21 1
    33   16   17 2
    34   17   18 1
    35   17   36 1
    36   18   19 1
    37   18   20 1
    38   20   21 2
    39   20   37 1
    40   22   38 1
    41   22   39 1
    42   22   40 1
@<TRIPOS>MOLECULE
ZINC48605083
   54    56     0     0     0
SMALL
USER_CHARGES

@<TRIPOS>ATOM
      1 C1         -0.0072    1.5193    0.0362 C.3       1 <0>        -0.1782
      2 C2          0.0081   -0.0127    0.0173 C.3       1 <0>         0.0624
      3 C3         -1.4146   -0.5408   -0.1353 C.3       1 <0>        -0.1421
      4 C4         -2.1852   -0.3815    1.1754 C.3       1 <0>         0.1383
      5 C5         -1.4528   -1.1742    2.2581 C.3       1 <0>        -0.1454
      6 C6         -0.0301   -0.6517    2.4288 C.3       1 <0>         0.0603
      7 N1          0.6989   -0.5483    1.1771 N.4       1 <0>        -0.4914
      8 C7          0.7250   -1.6549    3.3314 C.3       1 <0>        -0.1795
      9 C8         -0.0560    0.6887    3.1708 C.3       1 <0>        -0.1743
     10 N2         -3.5391   -0.9247    1.0100 N.am      1 <0>        -0.7005
     11 C9         -4.5443   -0.4777    1.7888 C.2       1 <0>         0.5194
     12 O1         -4.3302    0.3737    2.6267 O.2       1 <0>        -0.5035
     13 C10        -5.9215   -1.0302    1.6206 C.2       1 <0>         0.5068
     14 O2         -6.1356   -1.8818    0.7825 O.2       1 <0>        -0.4938
     15 N3         -6.9266   -0.5833    2.3993 N.am      1 <0>        -0.6361
     16 C11        -8.2328   -1.0287    2.1783 C.ar      1 <0>         0.1242
     17 C12        -9.3038   -0.1647    2.3720 C.ar      1 <0>        -0.1080
     18 C13       -10.5934   -0.6048    2.1538 C.ar      1 <0>        -0.0917
     19 C14       -10.8209   -1.9112    1.7411 C.ar      1 <0>         0.1499
     20 C15        -9.7509   -2.7750    1.5474 C.ar      1 <0>        -0.1155
     21 C16        -8.4606   -2.3339    1.7594 C.ar      1 <0>        -0.0890
     22 N4        -12.1317   -2.3584    1.5203 N.pl3     1 <0>        -0.3354
     23 C17       -12.5094   -3.5899    1.1263 C.2       1 <0>         0.2631
     24 N5        -13.8148   -3.6038    1.0357 N.2       1 <0>        -0.5321
     25 C18       -14.3035   -2.4078    1.3615 C.2       1 <0>         0.2141
     26 N6        -13.3125   -1.6131    1.6717 N.2       1 <0>        -0.3144
     27 C19         0.7977   -0.4427   -1.2408 C.3       1 <0>        -0.1799
     28 H1          1.0168    1.8929    0.0328 H         1 <0>         0.0861
     29 H2         -0.5316    1.8883   -0.8452 H         1 <0>         0.1061
     30 H3         -0.5176    1.8665    0.9346 H         1 <0>         0.0828
     31 H4         -1.9265    0.0136   -0.9256 H         1 <0>         0.1192
     32 H5         -1.3838   -1.5976   -0.4110 H         1 <0>         0.0994
     33 H6         -2.2551    0.6667    1.4517 H         1 <0>         0.1120
     34 H7         -1.9921   -1.0786    3.2036 H         1 <0>         0.1154
     35 H8         -1.4226   -2.2294    1.9764 H         1 <0>         0.0955
     36 H9          1.0548   -1.4788    0.9361 H         1 <0>         0.4251
     37 H10         0.7329   -2.6361    2.8567 H         1 <0>         0.0825
     38 H11         1.7498   -1.3132    3.4763 H         1 <0>         0.0848
     39 H12         0.2245   -1.7226    4.2973 H         1 <0>         0.1073
     40 H13        -0.5102    0.5520    4.1522 H         1 <0>         0.1063
     41 H14         0.9627    1.0576    3.2901 H         1 <0>         0.0833
     42 H15        -0.6388    1.4099    2.5979 H         1 <0>         0.0826
     43 H16        -3.7102   -1.6052    0.3403 H         1 <0>         0.4203
     44 H17        -6.7435    0.0474    3.1131 H         1 <0>         0.4261
     45 H18        -9.1270    0.8510    2.6936 H         1 <0>         0.1419
     46 H19       -11.4258    0.0666    2.3043 H         1 <0>         0.1481
     47 H20        -9.9283   -3.7909    1.2264 H         1 <0>         0.1406
     48 H21        -7.6283   -3.0044    1.6045 H         1 <0>         0.1510
     49 H22       -11.8502   -4.4204    0.9209 H         1 <0>         0.2239
     50 H23       -15.3496   -2.1394    1.3723 H         1 <0>         0.2265
     51 H24         1.8124   -0.0484   -1.1852 H         1 <0>         0.0859
     52 H25         0.8331   -1.5308   -1.2933 H         1 <0>         0.0831
     53 H26         0.3043   -0.0518   -2.1306 H         1 <0>         0.1082
     54 H27         1.5381    0.0167    1.3400 H         1 <0>         0.4283
@<TRIPOS>BOND
     1    1    2 1
     2    1   28 1
     3    1   29 1
     4    1   30 1
     5    2    7 1
     6    2    3 1
     7    2   27 1
     8    3    4 1
     9    3   31 1
    10    3   32 1
    11    4    5 1
    12    4   10 1
    13    4   33 1
    14    5    6 1
    15    5   34 1
    16    5   35 1
    17    6    7 1
    18    6    8 1
    19    6    9 1
    20    7   36 1
    21    7   54 1
    22    8   37 1
    23    8   38 1
    24    8   39 1
    25    9   40 1
    26    9   41 1
    27    9   42 1
    28   10   11 am
    29   10   43 1
    30   11   12 2
    31   11   13 1
    32   13   14 2
    33   13   15 am
    34   15   16 1
    35   15   44 1
    36   16   21 ar
    37   16   17 ar
    38   17   18 ar
    39   17   45 1
    40   18   19 ar
    41   18   46 1
    42   19   20 ar
    43   19   22 1
    44   20   21 ar
    45   20   47 1
    46   21   48 1
    47   22   26 1
    48   22   23 1
    49   23   24 2
    50   23   49 1
    51   24   25 1
    52   25   26 2
    53   25   50 1
    54   27   51 1
    55   27   52 1
    56   27   53 1
@<TRIPOS>MOLECULE
ZINC61700397
   33    35     0     0     0
SMALL
USER_CHARGES

@<TRIPOS>ATOM
      1 C1          1.0377    1.5347   -0.4800 C.3       1 <0>        -0.1820
      2 C2          0.9627    0.0068   -0.4513 C.3       1 <0>         0.0820
      3 H1          1.5878   -0.4027   -1.2449 H         1 <0>         0.1542
      4 C3          1.4518   -0.4952    0.8828 C.ar      1 <0>        -0.1119
      5 C4          0.6093   -0.4723    1.9796 C.ar      1 <0>        -0.1180
      6 C5          1.0538   -0.9313    3.2037 C.ar      1 <0>        -0.0368
      7 C6          2.3490   -1.4168    3.3334 C.ar      1 <0>        -0.0820
      8 C7          3.1933   -1.4386    2.2294 C.ar      1 <0>        -0.0287
      9 C8          2.7399   -0.9828    1.0062 C.ar      1 <0>        -0.0693
     10 Br1         4.9576   -2.0975    2.3995 Br        1 <0>         0.0031
     11 S1          2.9204   -2.0030    4.8938 S.3       1 <0>         0.0681
     12 C9          2.8657   -3.7571    4.7362 C.ar      1 <0>         0.1881
     13 C10         3.3530   -4.5810    5.7533 C.ar      1 <0>        -0.0489
     14 C11         3.2870   -5.9732    5.5811 C.ar      1 <0>         0.3135
     15 N1          3.8143   -6.5287    6.6883 N.2       1 <0>        -0.4838
     16 H2          4.1171   -3.5175    7.4006 H         1 <0>         0.4342
     17 C12         4.1929   -5.5930    7.5140 C.2       1 <0>         0.3212
     18 N2          3.9318   -4.3752    6.9873 N.pl3     1 <0>        -0.5760
     19 N3          2.7603   -6.4553    4.4505 N.ar      1 <0>        -0.4734
     20 C13         2.3139   -5.6407    3.5201 C.ar      1 <0>         0.3125
     21 N4          2.3540   -4.3269    3.6475 N.ar      1 <0>        -0.5144
     22 N5         -0.4284   -0.4191   -0.6547 N.4       1 <0>        -0.6368
     23 H3          2.0699    1.8507   -0.3291 H         1 <0>         0.1099
     24 H4          0.6840    1.8977   -1.4450 H         1 <0>         0.0909
     25 H5          0.4127    1.9441    0.3136 H         1 <0>         0.0852
     26 H6         -0.3974   -0.0945    1.8784 H         1 <0>         0.1353
     27 H7          0.3952   -0.9126    4.0595 H         1 <0>         0.1534
     28 H8          3.3936   -1.0033    0.1468 H         1 <0>         0.1511
     29 H9          4.6480   -5.7656    8.4780 H         1 <0>         0.2392
     30 H10         1.8947   -6.0624    2.6185 H         1 <0>         0.2073
     31 H11        -1.0070   -0.0401    0.0799 H         1 <0>         0.4318
     32 H12        -0.7559   -0.0830   -1.5479 H         1 <0>         0.4411
     33 H13        -0.4779   -1.4267   -0.6357 H         1 <0>         0.4400
@<TRIPOS>BOND
     1    1    2 1
     2    1   23 1
     3    1   24 1
     4    1   25 1
     5    2    3 1
     6    2    4 1
     7    2   22 1
     8    4    9 ar
     9    4    5 ar
    10    5    6 ar
    11    5   26 1
    12    6    7 ar
    13    6   27 1
    14    7    8 ar
    15    7   11 1
    16    8    9 ar
    17    8   10 1
    18    9   28 1
    19   11   12 1
    20   12   21 ar
    21   12   13 ar
    22   13   14 ar
    23   13   18 1
    24   14   15 1
    25   14   19 ar
    26   15   17 2
    27   16   18 1
    28   17   29 1
    29   17   18 1
    30   19   20 ar
    31   20   30 1
    32   20   21 ar
    33   22   31 1
    34   22   32 1
    35   22   33 1
@<TRIPOS>MOLECULE
ZINC65754938
   50    51     0     0     0
SMALL
USER_CHARGES

@<TRIPOS>ATOM
      1 C1         -1.5226    0.9424    0.2576 C.3       1 <0>        -0.1458
      2 C2         -1.0672   -0.4941    0.2435 C.2       1 <0>         0.0692
      3 C3         -1.1823   -1.2756   -0.9126 C.2       1 <0>         0.0570
      4 N1         -0.7849   -2.5189   -0.9163 N.2       1 <0>        -0.1899
      5 N2         -0.2760   -3.0925    0.1118 N.am      1 <0>        -0.4346
      6 H1          0.0005   -4.0199    0.0449 H         1 <0>         0.4476
      7 C4         -0.1137   -2.4449    1.2815 C.2       1 <0>         0.5006
      8 O1          0.3736   -3.0162    2.2419 O.2       1 <0>        -0.5332
      9 C5         -0.5137   -1.0824    1.3788 C.2       1 <0>        -0.2500
     10 C6         -0.3534   -0.3249    2.6329 C.2       1 <0>         0.5870
     11 O2         -0.8520    0.7787    2.7447 O.2       1 <0>        -0.5140
     12 N3          0.3457   -0.8553    3.6558 N.am      1 <0>        -0.6547
     13 C7          0.3819   -0.2007    4.8927 C.ar      1 <0>         0.1469
     14 C8          0.2117    1.1763    4.9549 C.ar      1 <0>        -0.1160
     15 C9          0.2470    1.8217    6.1747 C.ar      1 <0>        -0.1163
     16 C10         0.4525    1.0941    7.3395 C.ar      1 <0>         0.1068
     17 C11         0.6227   -0.2828    7.2774 C.ar      1 <0>        -0.0959
     18 C12         0.5823   -0.9290    6.0583 C.ar      1 <0>        -0.1281
     19 N4          0.4887    1.7491    8.5772 N.am      1 <0>        -0.6586
     20 C13         1.2577    1.2659    9.5731 C.2       1 <0>         0.5168
     21 O3          2.0120    0.3398    9.3621 O.2       1 <0>        -0.5138
     22 C14         1.1802    1.8764   10.9487 C.3       1 <0>        -0.1732
     23 C15         2.1471    1.1485   11.8848 C.3       1 <0>         0.0043
     24 N5          2.0716    1.7436   13.2258 N.4       1 <0>        -0.3874
     25 C16         0.7354    1.5112   13.7901 C.3       1 <0>        -0.0549
     26 C17         3.0837    1.1261   14.0932 C.3       1 <0>        -0.0465
     27 C18        -1.7706   -0.6760   -2.1638 C.3       1 <0>        -0.0960
     28 H2         -0.6643    1.5972    0.1069 H         1 <0>         0.0992
     29 H3         -2.2461    1.1021   -0.5418 H         1 <0>         0.0861
     30 H4         -1.9867    1.1670    1.2179 H         1 <0>         0.1164
     31 H5          0.8239   -1.6906    3.5349 H         1 <0>         0.4262
     32 H6          0.0522    1.7422    4.0490 H         1 <0>         0.1625
     33 H7          0.1150    2.8925    6.2230 H         1 <0>         0.1309
     34 H8          0.7830   -0.8485    8.1833 H         1 <0>         0.1366
     35 H9          0.7106   -2.0003    6.0104 H         1 <0>         0.1332
     36 H10        -0.0396    2.5503    8.7175 H         1 <0>         0.4140
     37 H11         1.4517    2.9306   10.8942 H         1 <0>         0.1201
     38 H12         0.1640    1.7822   11.3313 H         1 <0>         0.1204
     39 H13         1.8757    0.0943   11.9393 H         1 <0>         0.1399
     40 H14         3.1634    1.2427   11.5022 H         1 <0>         0.1413
     41 H15        -0.0155    1.9694   13.1465 H         1 <0>         0.1230
     42 H16         0.5509    0.4391   13.8575 H         1 <0>         0.1244
     43 H17         0.6794    1.9527   14.7851 H         1 <0>         0.1271
     44 H18         4.0752    1.2985   13.6745 H         1 <0>         0.1252
     45 H19         3.0277    1.5676   15.0882 H         1 <0>         0.1264
     46 H20         2.8992    0.0539   14.1605 H         1 <0>         0.1237
     47 H21        -0.9756   -0.2308   -2.7619 H         1 <0>         0.0896
     48 H22        -2.2669   -1.4556   -2.7417 H         1 <0>         0.0880
     49 H23        -2.4949    0.0921   -1.8927 H         1 <0>         0.0917
     50 H24         2.2425    2.7361   13.1634 H         1 <0>         0.4270
@<TRIPOS>BOND
     1    1    2 1
     2    1   28 1
     3    1   29 1
     4    1   30 1
     5    2    9 2
     6    2    3 1
     7    3    4 2
     8    3   27 1
     9    4    5 1
    10    5    6 1
    11    5    7 am
    12    7    8 2
    13    7    9 1
    14    9   10 1
    15   10   11 2
    16   10   12 am
    17   12   13 1
    18   12   31 1
    19   13   18 ar
    20   13   14 ar
    21   14   15 ar
    22   14   32 1
    23   15   16 ar
    24   15   33 1
    25   16   17 ar
    26   16   19 1
    27   17   18 ar
    28   17   34 1
    29   18   35 1
    30   19   20 am
    31   19   36 1
    32   20   21 2
    33   20   22 1
    34   22   23 1
    35   22   37 1
    36   22   38 1
    37   23   24 1
    38   23   39 1
    39   23   40 1
    40   24   25 1
    41   24   26 1
    42   24   50 1
    43   25   41 1
    44   25   42 1
    45   25   43 1
    46   26   44 1
    47   26   45 1
    48   26   46 1
    49   27   47 1
    50   27   48 1
    51   27   49 1
@<TRIPOS>MOLECULE
ZINC00855285
   43    45     0     0     0
SMALL
USER_CHARGES
4-[[1-(3-chlorophenyl)-2,5-dioxo-pyrrolidin-3-yl]aminomethyl]benzenesulfonamide
@<TRIPOS>ATOM
      1 C1         -6.0225   -0.0917  -11.3399 C.ar      1 <0>        -0.0878
      2 C2         -5.3219    0.9064  -10.6906 C.ar      1 <0>        -0.0880
      3 C3         -4.6162    0.6163   -9.5310 C.ar      1 <0>         0.0963
      4 C4         -4.6116   -0.6783   -9.0297 C.ar      1 <0>        -0.0904
      5 C5         -5.3189   -1.6719   -9.6801 C.ar      1 <0>        -0.0254
      6 C6         -6.0215   -1.3790  -10.8361 C.ar      1 <0>        -0.0830
      7 Cl1        -5.3197   -3.2899   -9.0510 Cl        1 <0>        -0.0414
      8 N1         -3.9045    1.6276   -8.8704 N.am      1 <0>        -0.5138
      9 C7         -2.8235    2.2156   -9.3976 C.2       1 <0>         0.5188
     10 O1         -2.3397    1.9559  -10.4784 O.2       1 <0>        -0.4154
     11 C8         -2.3009    3.2602   -8.4300 C.3       1 <0>        -0.1665
     12 C9         -3.2787    3.1665   -7.2410 C.3       1 <0>        -0.0034
     13 H1         -3.7984    4.1136   -7.0962 H         1 <0>         0.1970
     14 C10        -4.2501    2.0848   -7.6605 C.2       1 <0>         0.5118
     15 O2         -5.1921    1.6943   -7.0050 O.2       1 <0>        -0.4180
     16 C11        -3.3111    3.1936   -4.8201 C.3       1 <0>         0.0380
     17 C12        -2.5526    2.7770   -3.5863 C.ar      1 <0>        -0.1165
     18 C13        -1.6234    3.6325   -3.0245 C.ar      1 <0>        -0.1108
     19 C14        -0.9277    3.2504   -1.8928 C.ar      1 <0>        -0.0167
     20 C15        -1.1617    2.0131   -1.3224 C.ar      1 <0>        -0.6501
     21 C16        -2.0874    1.1557   -1.8871 C.ar      1 <0>        -0.0157
     22 C17        -2.7863    1.5396   -3.0163 C.ar      1 <0>        -0.1104
     23 S1         -0.2748    1.5260    0.1201 S.o2      1 <0>         2.6964
     24 O3         -0.2822    0.1052    0.1410 O.2       1 <0>        -0.9439
     25 O4          0.9284    2.2819    0.1317 O.2       1 <0>        -0.9441
     26 N2         -1.1586    2.0232    1.4294 N.pl3     1 <0>        -1.2371
     27 H2         -6.5713    0.1340  -12.2422 H         1 <0>         0.1514
     28 H3         -5.3230    1.9118  -11.0852 H         1 <0>         0.1374
     29 H4         -4.0597   -0.9078   -8.1302 H         1 <0>         0.1363
     30 H5         -6.5697   -2.1576  -11.3457 H         1 <0>         0.1498
     31 H6         -2.3361    4.2531   -8.8783 H         1 <0>         0.1667
     32 H7         -1.2868    3.0172   -8.1127 H         1 <0>         0.1471
     33 H8         -4.2934    2.7211   -4.8195 H         1 <0>         0.1516
     34 H9         -3.4291    4.2772   -4.8254 H         1 <0>         0.1520
     35 H10        -1.4409    4.5993   -3.4699 H         1 <0>         0.1457
     36 H11        -0.2015    3.9186   -1.4540 H         1 <0>         0.1557
     37 H12        -2.2670    0.1873   -1.4440 H         1 <0>         0.1555
     38 H13        -3.5124    0.8713   -3.4551 H         1 <0>         0.1445
     39 H14        -1.0091    2.9029    1.8097 H         1 <0>         0.4251
     40 H15        -1.8258    1.4347    1.8159 H         1 <0>         0.4252
     41 N3         -2.5582    2.7710   -6.0161 N.4       1 <0>        -0.5050
     42 H16        -1.6330    3.2162   -6.0087 H         1 <0>         0.4444
     43 H17        -2.4471    1.7504   -6.0032 H         1 <0>         0.4369
@<TRIPOS>BOND
     1    1    6 ar
     2    1    2 ar
     3    1   27 1
     4    2    3 ar
     5    2   28 1
     6    3    4 ar
     7    3    8 1
     8    4    5 ar
     9    4   29 1
    10    5    6 ar
    11    5    7 1
    12    6   30 1
    13    8   14 am
    14    8    9 am
    15    9   10 2
    16    9   11 1
    17   11   12 1
    18   11   31 1
    19   11   32 1
    20   12   13 1
    21   12   14 1
    22   12   41 1
    23   14   15 2
    24   16   17 1
    25   16   33 1
    26   16   34 1
    27   16   41 1
    28   17   22 ar
    29   17   18 ar
    30   18   19 ar
    31   18   35 1
    32   19   20 ar
    33   19   36 1
    34   20   21 ar
    35   20   23 1
    36   21   22 ar
    37   21   37 1
    38   22   38 1
    39   23   24 2
    40   23   25 2
    41   23   26 1
    42   26   39 1
    43   26   40 1
    44   41   42 1
    45   41   43 1
@<TRIPOS>MOLECULE
ZINC20292976
   55    59     0     0     0
SMALL
USER_CHARGES
N-(dimethyl-pyrrolidin-1-yl-BLAHyl)ethane-1,2-diamine
@<TRIPOS>ATOM
      1 C1         -8.1181    2.6591   -1.8448 C.3       1 <0>        -0.1827
      2 C2         -7.9453    2.9424   -0.3513 C.3       1 <0>         0.1073
      3 C3         -6.4914    2.6921    0.0559 C.3       1 <0>        -0.1072
      4 C4         -6.2061    1.2144    0.0353 C.ar      1 <0>         0.0684
      5 C5         -7.2019    0.2884    0.0299 C.ar      1 <0>        -0.1869
      6 C6         -6.8863   -1.0744    0.0238 C.ar      1 <0>         0.3740
      7 N1         -5.6231   -1.4705    0.0207 N.ar      1 <0>        -0.4898
      8 C7         -4.6353   -0.6000    0.0209 C.ar      1 <0>         0.1617
      9 C8         -4.8554    0.7880    0.0276 C.ar      1 <0>        -0.1774
     10 C9         -3.6468    1.6326    0.0275 C.ar      1 <0>         0.2426
     11 C10        -2.4235    0.9505    0.0187 C.ar      1 <0>        -0.2963
     12 S1         -2.8669   -0.7647    0.0128 S.3       1 <0>         0.1284
     13 C11        -1.2211    1.6427    0.0168 C.ar      1 <0>         0.4972
     14 N2         -1.2590    2.9751    0.0297 N.ar      1 <0>        -0.5667
     15 C12        -2.4203    3.6030    0.0336 C.ar      1 <0>         0.3483
     16 N3         -3.5735    2.9826    0.0352 N.ar      1 <0>        -0.5259
     17 N4         -0.0111    0.9658    0.0074 N.pl3     1 <0>        -0.7246
     18 C13         1.2475    1.7155   -0.0006 C.3       1 <0>         0.1082
     19 C14         2.4238    0.7372   -0.0171 C.3       1 <0>        -0.0159
     20 N5          3.6858    1.4890   -0.0251 N.4       1 <0>        -0.6817
     21 N6         -7.9046   -2.0179    0.0213 N.pl3     1 <0>        -0.4578
     22 C15        -8.7302   -1.9068   -1.2084 C.3       1 <0>         0.0282
     23 C16        -9.4219   -3.2903   -1.2972 C.3       1 <0>        -0.1225
     24 C17        -8.3191   -4.2598   -0.8135 C.3       1 <0>        -0.1294
     25 C18        -7.3550   -3.3910    0.0153 C.3       1 <0>         0.0335
     26 C19        -8.6536    0.6940    0.0264 C.3       1 <0>         0.1064
     27 O1         -8.7847    2.0635    0.4066 O.3       1 <0>        -0.3603
     28 C20        -8.3205    4.3958   -0.0550 C.3       1 <0>        -0.1399
     29 H1         -7.4721    3.3357   -2.4235 H         1 <0>         0.0720
     30 H2         -9.1680    2.8216   -2.1297 H         1 <0>         0.0728
     31 H3         -7.8384    1.6162   -2.0549 H         1 <0>         0.0569
     32 H4         -5.8198    3.2030   -0.6498 H         1 <0>         0.1104
     33 H5         -6.3224    3.0820    1.0705 H         1 <0>         0.1015
     34 H6         -2.4192    4.6830    0.0403 H         1 <0>         0.2049
     35 H7          0.0039   -0.1341    0.0059 H         1 <0>         0.4416
     36 H8          1.2886    2.3535   -0.8958 H         1 <0>         0.0876
     37 H9          1.3058    2.3438    0.9004 H         1 <0>         0.0877
     38 H10         2.3827    0.0992    0.8781 H         1 <0>         0.1357
     39 H11         2.3656    0.1089   -0.9181 H         1 <0>         0.1356
     40 H12         4.5315    0.7857   -0.0370 H         1 <0>         0.4663
     41 H13         3.7440    2.1173    0.8759 H         1 <0>         0.4606
     42 H14        -9.4500   -1.0830   -1.0936 H         1 <0>         0.1009
     43 H15        -8.0779   -1.7062   -2.0711 H         1 <0>         0.0584
     44 H16       -10.3088   -3.2992   -0.6465 H         1 <0>         0.0845
     45 H17        -9.7277   -3.4814   -2.3364 H         1 <0>         0.0837
     46 H18        -8.7721   -5.0558   -0.2042 H         1 <0>         0.0817
     47 H19        -7.8155   -4.7059   -1.6838 H         1 <0>         0.0745
     48 H20        -6.3527   -3.3828   -0.4379 H         1 <0>         0.0856
     49 H21        -7.2873   -3.7634    1.0481 H         1 <0>         0.0891
     50 H22        -9.0694    0.5596   -0.9831 H         1 <0>         0.0746
     51 H23        -9.2109    0.0680    0.7388 H         1 <0>         0.1203
     52 H24        -8.1949    4.5952    1.0195 H         1 <0>         0.0678
     53 H25        -9.3687    4.5693   -0.3400 H         1 <0>         0.0701
     54 H26        -7.6677    5.0678   -0.6314 H         1 <0>         0.0755
     55 H27         3.7269    2.1270   -0.9203 H         1 <0>         0.4605
@<TRIPOS>BOND
     1    1    2 1
     2    1   29 1
     3    1   30 1
     4    1   31 1
     5    2   27 1
     6    2    3 1
     7    2   28 1
     8    3    4 1
     9    3   32 1
    10    3   33 1
    11    4    9 ar
    12    4    5 ar
    13    5    6 ar
    14    5   26 1
    15    6    7 ar
    16    6   21 1
    17    7    8 ar
    18    8   12 1
    19    8    9 ar
    20    9   10 1
    21   10   16 ar
    22   10   11 ar
    23   11   12 1
    24   11   13 ar
    25   13   14 ar
    26   13   17 1
    27   14   15 ar
    28   15   16 ar
    29   15   34 1
    30   17   18 1
    31   17   35 1
    32   18   19 1
    33   18   36 1
    34   18   37 1
    35   19   20 1
    36   19   38 1
    37   19   39 1
    38   20   40 1
    39   20   41 1
    40   20   55 1
    41   21   25 1
    42   21   22 1
    43   22   23 1
    44   22   42 1
    45   22   43 1
    46   23   24 1
    47   23   44 1
    48   23   45 1
    49   24   25 1
    50   24   46 1
    51   24   47 1
    52   25   48 1
    53   25   49 1
    54   26   27 1
    55   26   50 1
    56   26   51 1
    57   28   52 1
    58   28   53 1
    59   28   54 1
@<TRIPOS>MOLECULE
ZINC44802830
   51    52     0     0     0
SMALL
USER_CHARGES

@<TRIPOS>ATOM
      1 C1          0.1303    0.4308   -1.8363 C.3       1 <0>        -0.1769
      2 C2         -0.4642    0.8143   -0.4797 C.3       1 <0>         0.0809
      3 H1         -0.6808    1.8825   -0.4668 H         1 <0>         0.1480
      4 C3          0.5229    0.4887    0.6115 C.ar      1 <0>        -0.1661
      5 C4          0.6460   -0.8115    1.0653 C.ar      1 <0>        -0.0862
      6 C5          1.5499   -1.1125    2.0657 C.ar      1 <0>        -0.1216
      7 C6          2.3347   -0.1089    2.6148 C.ar      1 <0>         0.1375
      8 C7          2.2096    1.1949    2.1574 C.ar      1 <0>        -0.1789
      9 C8          1.3080    1.4898    1.1531 C.ar      1 <0>        -0.0432
     10 O1          3.2242   -0.4024    3.5994 O.3       1 <0>        -0.3153
     11 C9          3.9988    0.6808    4.1179 C.3       1 <0>         0.4114
     12 F1          4.7538    1.2498    3.0866 F         1 <0>        -0.1934
     13 F2          3.1448    1.6478    4.6589 F         1 <0>        -0.1932
     14 N1         -1.7053    0.0604   -0.2581 N.4       1 <0>        -0.4984
     15 C10        -2.3422    0.5196    0.9834 C.3       1 <0>        -0.0144
     16 H2         -1.6249    0.4631    1.8022 H         1 <0>         0.1860
     17 C11        -2.8082    1.9668    0.8125 C.3       1 <0>        -0.1588
     18 C12        -3.5284   -0.3568    1.2934 C.2       1 <0>         0.4352
     19 O2         -3.9824   -1.0894    0.4376 O.2       1 <0>        -0.5096
     20 C13        -4.1117   -0.3263    2.5781 C.2       1 <0>        -0.4646
     21 C14        -5.2928   -1.0361    2.8556 C.2       1 <0>         0.5801
     22 N2         -5.8192   -0.9762    4.1144 N.am      1 <0>        -0.5392
     23 C15        -5.2318   -0.2559    5.0826 C.2       1 <0>         0.7081
     24 O3         -5.7399   -0.2349    6.1866 O.2       1 <0>        -0.5024
     25 N3         -4.1032    0.4421    4.8768 N.am      1 <0>        -0.5546
     26 C16        -3.5008    0.4432    3.6697 C.2       1 <0>         0.5847
     27 O4         -2.4750    1.0726    3.4878 O.2       1 <0>        -0.5079
     28 C17        -3.5151    1.2073    5.9790 C.3       1 <0>         0.0750
     29 C18        -7.0499   -1.7125    4.4136 C.3       1 <0>         0.0570
     30 N4         -5.9020   -1.7706    1.8858 N.pl3     1 <0>        -0.7822
     31 H3          1.0030    1.0515   -2.0391 H         1 <0>         0.1090
     32 H4          0.4263   -0.6181   -1.8198 H         1 <0>         0.0833
     33 H5         -0.6150    0.5858   -2.6165 H         1 <0>         0.0852
     34 H6          0.0348   -1.5924    0.6375 H         1 <0>         0.1275
     35 H7          1.6452   -2.1281    2.4204 H         1 <0>         0.1463
     36 H8          2.8194    1.9779    2.5833 H         1 <0>         0.1460
     37 H9          1.2133    2.5038    0.7936 H         1 <0>         0.1409
     38 H10         4.6669    0.3102    4.8954 H         1 <0>         0.1908
     39 H11        -2.3331    0.2106   -1.0337 H         1 <0>         0.4296
     40 H12        -3.4139    2.2573    1.6709 H         1 <0>         0.1078
     41 H13        -1.9401    2.6221    0.7420 H         1 <0>         0.0919
     42 H14        -3.4027    2.0521   -0.0971 H         1 <0>         0.0795
     43 H15        -4.1282    1.0875    6.8722 H         1 <0>         0.1062
     44 H16        -2.5077    0.8418    6.1781 H         1 <0>         0.0861
     45 H17        -3.4718    2.2618    5.7067 H         1 <0>         0.0869
     46 H18        -6.7985   -2.7150    4.7596 H         1 <0>         0.0957
     47 H19        -7.6067   -1.1889    5.1907 H         1 <0>         0.1174
     48 H20        -7.6602   -1.7813    3.5131 H         1 <0>         0.0916
     49 H21        -5.4542   -1.9219    1.0387 H         1 <0>         0.4420
     50 H22        -6.7840   -2.1430    2.0414 H         1 <0>         0.4155
     51 H23        -1.4926   -0.9231   -0.1832 H         1 <0>         0.4236
@<TRIPOS>BOND
     1    1    2 1
     2    1   31 1
     3    1   32 1
     4    1   33 1
     5    2    3 1
     6    2    4 1
     7    2   14 1
     8    4    9 ar
     9    4    5 ar
    10    5    6 ar
    11    5   34 1
    12    6    7 ar
    13    6   35 1
    14    7    8 ar
    15    7   10 1
    16    8    9 ar
    17    8   36 1
    18    9   37 1
    19   10   11 1
    20   11   12 1
    21   11   13 1
    22   11   38 1
    23   14   15 1
    24   14   39 1
    25   14   51 1
    26   15   16 1
    27   15   17 1
    28   15   18 1
    29   17   40 1
    30   17   41 1
    31   17   42 1
    32   18   19 2
    33   18   20 1
    34   20   26 1
    35   20   21 2
    36   21   22 1
    37   21   30 1
    38   22   23 am
    39   22   29 1
    40   23   24 2
    41   23   25 am
    42   25   26 am
    43   25   28 1
    44   26   27 2
    45   28   43 1
    46   28   44 1
    47   28   45 1
    48   29   46 1
    49   29   47 1
    50   29   48 1
    51   30   49 1
    52   30   50 1
@<TRIPOS>MOLECULE
ZINC63295068
   54    57     0     0     0
SMALL
USER_CHARGES

@<TRIPOS>ATOM
      1 C1         -0.0167    1.3945    0.0181 C.ar      1 <0>         0.0570
      2 C2          1.1099    2.1373    0.0126 C.ar      1 <0>        -0.1892
      3 C3          2.3861    1.5119   -0.0052 C.ar      1 <0>         0.3355
      4 N1          3.6017    2.0094   -0.0337 N.pl3     1 <0>        -0.5739
      5 C4          4.5567    0.9061    0.0362 C.3       1 <0>         0.0725
      6 H1          5.1101    0.9371    0.9748 H         1 <0>         0.1820
      7 C5          5.5194    0.9070   -1.1569 C.3       1 <0>         0.1392
      8 N2          6.1532   -0.4189   -1.2266 N.am      1 <0>        -0.6319
      9 C6          5.3400   -1.6271   -1.4010 C.3       1 <0>         0.1064
     10 C7          4.3260   -1.7294   -0.2468 C.3       1 <0>        -0.1062
     11 C8          3.7186   -0.3585   -0.0503 C.2       1 <0>         0.0819
     12 C9          2.4356    0.0290   -0.0242 C.ar      1 <0>        -0.1613
     13 C10         1.1627   -0.7033   -0.0136 C.ar      1 <0>        -0.0002
     14 C11         0.0026   -0.0081    0.0070 C.ar      1 <0>        -0.0786
     15 Cl1        -1.5018   -0.8743    0.0205 Cl        1 <0>        -0.0136
     16 C12         7.4933   -0.5243   -1.1298 C.2       1 <0>         0.7136
     17 O1          8.1799    0.4779   -1.0799 O.2       1 <0>        -0.5673
     18 N3          8.0724   -1.7406   -1.0882 N.am      1 <0>        -0.7264
     19 C13         9.5166   -1.8573   -0.8720 C.3       1 <0>         0.1141
     20 C14         9.9080   -3.3126   -0.8683 C.2       1 <0>         0.5138
     21 O2          9.0637   -4.1681   -1.0303 O.2       1 <0>        -0.5402
     22 N4         11.1963   -3.6635   -0.6849 N.am      1 <0>        -0.6044
     23 C15        12.2295   -2.6389   -0.4812 C.3       1 <0>         0.1006
     24 C16        13.3519   -2.8611   -1.4999 C.3       1 <0>        -0.1180
     25 C17        13.8619   -4.2995   -1.3854 C.3       1 <0>        -0.1104
     26 C18        12.7237   -5.2727   -1.7008 C.3       1 <0>        -0.1270
     27 C19        11.5933   -5.0781   -0.6788 C.3       1 <0>         0.1125
     28 C20        14.9892   -4.5118   -2.3627 C.2       1 <0>         0.5200
     29 O3         15.3492   -3.6025   -3.0800 O.2       1 <0>        -0.5385
     30 N5         15.5973   -5.7121   -2.4397 N.am      1 <0>        -0.8545
     31 H2         -0.9710    1.9000    0.0363 H         1 <0>         0.1715
     32 H3          1.0414    3.2151    0.0214 H         1 <0>         0.1717
     33 H4          4.9671    1.1006   -2.0765 H         1 <0>         0.0987
     34 H5          6.2816    1.6732   -1.0154 H         1 <0>         0.1359
     35 H6          4.8067   -1.5728   -2.3501 H         1 <0>         0.0966
     36 H7          5.9865   -2.5046   -1.3962 H         1 <0>         0.1144
     37 H8          3.5486   -2.4516   -0.4964 H         1 <0>         0.1277
     38 H9          4.8338   -2.0286    0.6701 H         1 <0>         0.1295
     39 H10         1.1530   -1.7832   -0.0223 H         1 <0>         0.1715
     40 H11         7.5329   -2.5388   -1.2014 H         1 <0>         0.4094
     41 H12        10.0467   -1.3406   -1.6720 H         1 <0>         0.1068
     42 H13         9.7780   -1.4084    0.0863 H         1 <0>         0.1045
     43 H14        11.7961   -1.6492   -0.6251 H         1 <0>         0.0928
     44 H15        12.6312   -2.7208    0.5288 H         1 <0>         0.0820
     45 H16        12.9691   -2.6898   -2.5060 H         1 <0>         0.0785
     46 H17        14.1688   -2.1683   -1.2981 H         1 <0>         0.0913
     47 H18        14.2217   -4.4776   -0.3720 H         1 <0>         0.1042
     48 H19        12.3468   -5.0787   -2.7050 H         1 <0>         0.0764
     49 H20        13.0935   -6.2964   -1.6419 H         1 <0>         0.0851
     50 H21        11.9442   -5.3548    0.3154 H         1 <0>         0.0781
     51 H22        10.7400   -5.6983   -0.9531 H         1 <0>         0.1009
     52 H23        15.3094   -6.4393   -1.8660 H         1 <0>         0.4019
     53 H24        16.3229   -5.8487   -3.0687 H         1 <0>         0.4048
     54 H25         3.8272    2.9510   -0.0920 H         1 <0>         0.4581
@<TRIPOS>BOND
     1    1   14 ar
     2    1    2 ar
     3    1   31 1
     4    2    3 ar
     5    2   32 1
     6    3   12 ar
     7    3    4 2
     8    4    5 1
     9    4   54 1
    10    5    6 1
    11    5   11 1
    12    5    7 1
    13    7    8 1
    14    7   33 1
    15    7   34 1
    16    8    9 1
    17    8   16 am
    18    9   10 1
    19    9   35 1
    20    9   36 1
    21   10   11 1
    22   10   37 1
    23   10   38 1
    24   11   12 2
    25   12   13 ar
    26   13   14 ar
    27   13   39 1
    28   14   15 1
    29   16   17 2
    30   16   18 am
    31   18   19 1
    32   18   40 1
    33   19   20 1
    34   19   41 1
    35   19   42 1
    36   20   21 2
    37   20   22 am
    38   22   27 1
    39   22   23 1
    40   23   24 1
    41   23   43 1
    42   23   44 1
    43   24   25 1
    44   24   45 1
    45   24   46 1
    46   25   26 1
    47   25   28 1
    48   25   47 1
    49   26   27 1
    50   26   48 1
    51   26   49 1
    52   27   50 1
    53   27   51 1
    54   28   29 2
    55   28   30 am
    56   30   52 1
    57   30   53 1
@<TRIPOS>MOLECULE
ZINC64097977
   53    57     0     0     0
SMALL
USER_CHARGES

@<TRIPOS>ATOM
      1 C1         -1.2217    2.2754    0.8157 C.3       1 <0>         0.0154
      2 O1         -1.4301    0.8642    0.7307 O.3       1 <0>        -0.3028
      3 C2         -0.5975    0.0726    1.4570 C.ar      1 <0>         0.1034
      4 C3          0.4005    0.6771    2.2413 C.ar      1 <0>        -0.0307
      5 C4          1.2692   -0.0384    2.9870 C.ar      1 <0>        -0.1481
      6 C5          1.1905   -1.5014    2.9971 C.ar      1 <0>         0.3356
      7 N1          1.8850   -2.4121    3.6397 N.pl3     1 <0>        -0.5366
      8 C6          1.4342   -3.7296    3.2035 C.3       1 <0>         0.0500
      9 H1          2.2148   -4.2298    2.6303 H         1 <0>         0.1816
     10 C7          0.9760   -4.6114    4.3682 C.3       1 <0>         0.1263
     11 H2          1.8418   -4.9380    4.9444 H         1 <0>         0.1291
     12 N2          0.2779   -5.7829    3.8154 N.3       1 <0>        -0.6572
     13 C8         -0.9854   -5.4439    3.1535 C.3       1 <0>         0.0449
     14 C9         -0.7135   -4.5837    1.9054 C.3       1 <0>        -0.1232
     15 C10         0.2154   -3.4689    2.3320 C.2       1 <0>         0.0321
     16 C11         0.1310   -2.1425    2.1769 C.ar      1 <0>        -0.1200
     17 C12        -0.7615   -1.2702    1.4041 C.ar      1 <0>        -0.0965
     18 C13         0.0250   -3.8217    5.2698 C.3       1 <0>        -0.0961
     19 H3         -0.6926   -3.2819    4.6519 H         1 <0>         0.1360
     20 C14         0.8146   -2.8405    6.0857 C.2       1 <0>         0.3858
     21 N3          1.1220   -3.0435    7.3077 N.2       1 <0>        -0.5962
     22 C15         0.7563   -4.2355    8.0551 C.3       1 <0>         0.4995
     23 H4          0.4856   -3.9473    9.0708 H         1 <0>         0.1253
     24 N4         -0.3639   -4.9404    7.4491 N.am      1 <0>        -0.5633
     25 C16        -0.7108   -4.7728    6.1705 C.2       1 <0>         0.5452
     26 O2         -1.6451   -5.4064    5.7269 O.2       1 <0>        -0.4710
     27 C17        -1.1046   -5.8281    8.2373 C.ar      1 <0>         0.1311
     28 C18        -2.1923   -5.3681    8.9686 C.ar      1 <0>        -0.1018
     29 C19        -2.9216   -6.2462    9.7458 C.ar      1 <0>        -0.0965
     30 C20        -2.5703   -7.5826    9.7974 C.ar      1 <0>        -0.0930
     31 C21        -1.4870   -8.0445    9.0706 C.ar      1 <0>        -0.0292
     32 C22        -0.7572   -7.1714    8.2856 C.ar      1 <0>        -0.0795
     33 Cl1        -1.0490   -9.7230    9.1386 Cl        1 <0>        -0.0528
     34 O3          1.8820   -5.1143    8.1070 O.3       1 <0>        -0.5667
     35 O4          1.2170   -1.6926    5.5018 O.3       1 <0>        -0.4890
     36 H5         -0.2156    2.5154    0.4719 H         1 <0>         0.0640
     37 H6         -1.9517    2.7888    0.1899 H         1 <0>         0.1163
     38 H7         -1.3389    2.5983    1.8501 H         1 <0>         0.0638
     39 H8          0.4752    1.7545    2.2474 H         1 <0>         0.1658
     40 H9          2.0213    0.4668    3.5748 H         1 <0>         0.1671
     41 H10         0.8811   -6.3050    3.1975 H         1 <0>         0.3680
     42 H11        -1.4955   -6.3604    2.8569 H         1 <0>         0.1171
     43 H12        -1.6181   -4.8876    3.8452 H         1 <0>         0.1130
     44 H13        -0.2261   -5.1830    1.1364 H         1 <0>         0.1199
     45 H14        -1.6476   -4.1710    1.5243 H         1 <0>         0.1185
     46 H15        -1.5429   -1.6977    0.7934 H         1 <0>         0.1629
     47 H16        -2.4671   -4.3244    8.9296 H         1 <0>         0.1296
     48 H17        -3.7674   -5.8886   10.3144 H         1 <0>         0.1434
     49 H18        -3.1421   -8.2672   10.4063 H         1 <0>         0.1429
     50 H19         0.0851   -7.5328    7.7144 H         1 <0>         0.1380
     51 H20         2.6604   -4.7315    8.5343 H         1 <0>         0.4059
     52 H21         1.7201   -1.1093    6.0864 H         1 <0>         0.4191
     53 H22         2.5803   -2.2384    4.2934 H         1 <0>         0.4533
@<TRIPOS>BOND
     1    1    2 1
     2    1   36 1
     3    1   37 1
     4    1   38 1
     5    2    3 1
     6    3   17 ar
     7    3    4 ar
     8    4    5 ar
     9    4   39 1
    10    5    6 ar
    11    5   40 1
    12    6   16 ar
    13    6    7 2
    14    7    8 1
    15    7   53 1
    16    8    9 1
    17    8   15 1
    18    8   10 1
    19   10   11 1
    20   10   12 1
    21   10   18 1
    22   12   13 1
    23   12   41 1
    24   13   14 1
    25   13   42 1
    26   13   43 1
    27   14   15 1
    28   14   44 1
    29   14   45 1
    30   15   16 2
    31   16   17 ar
    32   17   46 1
    33   18   19 1
    34   18   25 1
    35   18   20 1
    36   20   21 2
    37   20   35 1
    38   21   22 1
    39   22   23 1
    40   22   24 1
    41   22   34 1
    42   24   25 am
    43   24   27 1
    44   25   26 2
    45   27   32 ar
    46   27   28 ar
    47   28   29 ar
    48   28   47 1
    49   29   30 ar
    50   29   48 1
    51   30   31 ar
    52   30   49 1
    53   31   32 ar
    54   31   33 1
    55   32   50 1
    56   34   51 1
    57   35   52 1
@<TRIPOS>MOLECULE
ZINC20589122
   57    60     0     0     0
SMALL
USER_CHARGES

@<TRIPOS>ATOM
      1 C1         -0.0187    1.5258    0.0104 C.3       1 <0>        -0.1546
      2 C2          0.0021   -0.0041    0.0020 C.3       1 <0>         0.0510
      3 O1          0.6709   -0.4649   -1.1737 O.3       1 <0>        -0.3097
      4 C3          0.7766   -1.8081   -1.3359 C.ar      1 <0>         0.1664
      5 C4          0.2404   -2.6657   -0.3825 C.ar      1 <0>        -0.2197
      6 C5          0.3455   -4.0293   -0.5434 C.ar      1 <0>        -0.0117
      7 C6          0.9919   -4.5504   -1.6673 C.ar      1 <0>        -0.1862
      8 C7          1.5292   -3.6849   -2.6237 C.ar      1 <0>        -0.0419
      9 C8          1.4157   -2.3226   -2.4579 C.ar      1 <0>        -0.1608
     10 C9          1.1073   -6.0114   -1.8435 C.2       1 <0>         0.5722
     11 O2          0.6395   -6.7630   -1.0101 O.2       1 <0>        -0.5389
     12 N1          1.7311   -6.5121   -2.9282 N.am      1 <0>        -0.7219
     13 C10         1.8456   -7.9622   -3.1031 C.3       1 <0>         0.1019
     14 C11         2.5801   -8.2570   -4.3855 C.2       1 <0>         0.5158
     15 O3          2.9696   -7.3457   -5.0846 O.2       1 <0>        -0.5200
     16 N2          2.8042   -9.5335   -4.7556 N.am      1 <0>        -0.6165
     17 C12         2.3330  -10.6481   -3.9223 C.3       1 <0>         0.1017
     18 C13         3.5169  -11.5729   -3.6215 C.3       1 <0>        -0.1665
     19 C14         4.1719  -12.0008   -4.9353 C.3       1 <0>         0.1864
     20 C15         4.6947  -10.7707   -5.6777 C.3       1 <0>        -0.1238
     21 C16         3.5188   -9.8368   -6.0030 C.3       1 <0>         0.1100
     22 C17         5.3082  -12.9464   -4.6522 C.2       1 <0>         0.0607
     23 C18         5.2327  -14.2850   -4.8332 C.2       1 <0>         0.0456
     24 N3          6.4069  -14.8149   -4.4910 N.pl3     1 <0>        -0.4647
     25 C19         7.2112  -13.8589   -4.1024 C.cat     1 <0>         0.2973
     26 N4          6.5573  -12.6766   -4.1895 N.pl3     1 <0>        -0.4954
     27 H1          6.9129  -11.8027   -3.9644 H         1 <0>         0.4646
     28 C20         3.9904  -14.9775   -5.3376 C.3       1 <0>        -0.0549
     29 C21         2.8153  -13.9998   -5.1989 C.3       1 <0>         0.0479
     30 N5          3.1829  -12.6983   -5.7732 N.3       1 <0>        -0.6738
     31 H2          1.0039    1.9031    0.0027 H         1 <0>         0.0681
     32 H3         -0.5459    1.8868   -0.8726 H         1 <0>         0.0685
     33 H4         -0.5289    1.8773    0.9072 H         1 <0>         0.0824
     34 H5          0.5293   -0.3651    0.8851 H         1 <0>         0.0666
     35 H6         -1.0205   -0.3814    0.0098 H         1 <0>         0.0669
     36 H7         -0.2590   -2.2621    0.4859 H         1 <0>         0.1379
     37 H8         -0.0707   -4.6950    0.1982 H         1 <0>         0.1403
     38 H9          2.0295   -4.0839   -3.4938 H         1 <0>         0.1333
     39 H10         1.8271   -1.6530   -3.1987 H         1 <0>         0.1403
     40 H11         2.1043   -5.9125   -3.5931 H         1 <0>         0.4125
     41 H12         2.3956   -8.3871   -2.2634 H         1 <0>         0.0997
     42 H13         0.8495   -8.4028   -3.1453 H         1 <0>         0.1029
     43 H14         1.9262  -10.2599   -2.9886 H         1 <0>         0.1051
     44 H15         1.5621  -11.2034   -4.4565 H         1 <0>         0.0802
     45 H16         4.2453  -11.0433   -3.0075 H         1 <0>         0.0835
     46 H17         3.1631  -12.4547   -3.0874 H         1 <0>         0.0924
     47 H18         5.4158  -10.2466   -5.0506 H         1 <0>         0.0754
     48 H19         5.1768  -11.0826   -6.6042 H         1 <0>         0.0973
     49 H20         2.8415  -10.3273   -6.7021 H         1 <0>         0.0846
     50 H21         3.8949   -8.9129   -6.4426 H         1 <0>         0.1088
     51 H22         8.2294  -13.9911   -3.7675 H         1 <0>         0.2692
     52 H23         4.1204  -15.2516   -6.3845 H         1 <0>         0.1147
     53 H24         3.7990  -15.8708   -4.7430 H         1 <0>         0.1068
     54 H25         1.9485  -14.3974   -5.7268 H         1 <0>         0.1099
     55 H26         2.5705  -13.8743   -4.1442 H         1 <0>         0.0555
     56 H27         2.3661  -12.1248   -5.9217 H         1 <0>         0.3708
     57 H28         6.6295  -15.7584   -4.5246 H         1 <0>         0.4659
@<TRIPOS>BOND
     1    1    2 1
     2    1   31 1
     3    1   32 1
     4    1   33 1
     5    2    3 1
     6    2   34 1
     7    2   35 1
     8    3    4 1
     9    4    9 ar
    10    4    5 ar
    11    5    6 ar
    12    5   36 1
    13    6    7 ar
    14    6   37 1
    15    7    8 ar
    16    7   10 1
    17    8    9 ar
    18    8   38 1
    19    9   39 1
    20   10   11 2
    21   10   12 am
    22   12   13 1
    23   12   40 1
    24   13   14 1
    25   13   41 1
    26   13   42 1
    27   14   15 2
    28   14   16 am
    29   16   21 1
    30   16   17 1
    31   17   18 1
    32   17   43 1
    33   17   44 1
    34   18   19 1
    35   18   45 1
    36   18   46 1
    37   19   30 1
    38   19   20 1
    39   19   22 1
    40   20   21 1
    41   20   47 1
    42   20   48 1
    43   21   49 1
    44   21   50 1
    45   22   26 1
    46   22   23 2
    47   23   24 1
    48   23   28 1
    49   24   25 2
    50   24   57 1
    51   25   26 1
    52   25   51 1
    53   26   27 1
    54   28   29 1
    55   28   52 1
    56   28   53 1
    57   29   30 1
    58   29   54 1
    59   29   55 1
    60   30   56 1
@<TRIPOS>MOLECULE
ZINC37574348
   41    42     0     0     0
SMALL
USER_CHARGES

@<TRIPOS>ATOM
      1 C1          1.6361   -0.5616   -1.4499 C.ar      1 <0>        -0.0951
      2 C2          2.7137    0.2845   -1.2653 C.ar      1 <0>        -0.0072
      3 C3          2.6544    1.2815   -0.3101 C.ar      1 <0>        -0.6498
      4 C4          1.5164    1.4332    0.4620 C.ar      1 <0>        -0.0003
      5 C5          0.4382    0.5871    0.2777 C.ar      1 <0>        -0.0828
      6 C6          0.4981   -0.4107   -0.6785 C.ar      1 <0>        -0.0366
      7 Br1        -0.9761   -1.5677   -0.9315 Br        1 <0>        -0.0110
      8 Br2         1.4355    2.7971    1.7694 Br        1 <0>        -0.0059
      9 S1          4.0284    2.3592   -0.0751 S.o2      1 <0>         2.6871
     10 O1          5.0429    1.9250   -0.9705 O.2       1 <0>        -0.9436
     11 O2          3.5134    3.6835   -0.0917 O.2       1 <0>        -0.9271
     12 N1          4.6027    2.0938    1.4553 N.pl3     1 <0>        -1.1112
     13 C7          5.1552    0.7851    1.8137 C.3       1 <0>         0.1157
     14 C8          5.9648    0.9099    3.1059 C.3       1 <0>        -0.1259
     15 C9          6.5418   -0.4568    3.4802 C.3       1 <0>         0.0543
     16 N2          7.3192   -0.3370    4.7209 N.3       1 <0>        -0.5391
     17 C10         6.4485   -0.0076    5.8582 C.3       1 <0>         0.0175
     18 C11         7.3019    0.1667    7.1164 C.3       1 <0>        -0.0032
     19 N3          8.0380   -1.0757    7.3849 N.4       1 <0>        -0.5087
     20 C12         8.9213   -1.3784    6.2510 C.3       1 <0>        -0.0029
     21 C13         8.0813   -1.5655    4.9856 C.3       1 <0>         0.0234
     22 H1          1.6813   -1.3378   -2.1995 H         1 <0>         0.1546
     23 H2          3.6024    0.1661   -1.8676 H         1 <0>         0.1640
     24 H3         -0.4502    0.7050    0.8805 H         1 <0>         0.1545
     25 H4          4.5732    2.8048    2.1145 H         1 <0>         0.4228
     26 H5          4.3413    0.0754    1.9620 H         1 <0>         0.0658
     27 H6          5.8033    0.4323    1.0115 H         1 <0>         0.0867
     28 H7          6.7787    1.6197    2.9577 H         1 <0>         0.0897
     29 H8          5.3167    1.2627    3.9081 H         1 <0>         0.0733
     30 H9          5.7279   -1.1665    3.6285 H         1 <0>         0.0515
     31 H10         7.1899   -0.8096    2.6780 H         1 <0>         0.0951
     32 H11         5.9136    0.9191    5.6504 H         1 <0>         0.1258
     33 H12         5.7322   -0.8143    6.0135 H         1 <0>         0.0622
     34 H13         8.0089    0.9825    6.9657 H         1 <0>         0.1402
     35 H14         6.6566    0.3971    7.9641 H         1 <0>         0.1385
     36 H15         8.5911   -0.9647    8.2215 H         1 <0>         0.4348
     37 H16         9.6200   -0.5547    6.1048 H         1 <0>         0.1403
     38 H17         9.4765   -2.2935    6.4571 H         1 <0>         0.1391
     39 H18         7.3919   -2.3979    5.1265 H         1 <0>         0.0619
     40 H19         8.7377   -1.7754    4.1411 H         1 <0>         0.1252
     41 H20         7.3837   -1.8331    7.5128 H         1 <0>         0.4260
@<TRIPOS>BOND
     1    1    6 ar
     2    1    2 ar
     3    1   22 1
     4    2    3 ar
     5    2   23 1
     6    3    4 ar
     7    3    9 1
     8    4    5 ar
     9    4    8 1
    10    5    6 ar
    11    5   24 1
    12    6    7 1
    13    9   10 2
    14    9   11 2
    15    9   12 1
    16   12   13 1
    17   12   25 1
    18   13   14 1
    19   13   26 1
    20   13   27 1
    21   14   15 1
    22   14   28 1
    23   14   29 1
    24   15   16 1
    25   15   30 1
    26   15   31 1
    27   16   21 1
    28   16   17 1
    29   17   18 1
    30   17   32 1
    31   17   33 1
    32   18   19 1
    33   18   34 1
    34   18   35 1
    35   19   20 1
    36   19   36 1
    37   19   41 1
    38   20   21 1
    39   20   37 1
    40   20   38 1
    41   21   39 1
    42   21   40 1
@<TRIPOS>MOLECULE
ZINC39656551
   60    62     0     0     0
SMALL
USER_CHARGES

@<TRIPOS>ATOM
      1 C1         -3.6382   -0.3291    6.3974 C.3       1 <0>        -0.1414
      2 C2         -3.5383   -1.7940    5.9672 C.3       1 <0>        -0.0865
      3 S1         -3.7169   -1.9087    4.1657 S.3       1 <0>        -0.2363
      4 C3         -3.5769   -3.6845    3.8230 C.3       1 <0>        -0.1098
      5 C4         -3.7117   -3.9257    2.3182 C.3       1 <0>         0.1342
      6 N1         -3.5987   -5.3599    2.0414 N.am      1 <0>        -0.7268
      7 C5         -3.6875   -5.8108    0.7744 C.2       1 <0>         0.5210
      8 O1         -3.8611   -5.0292   -0.1366 O.2       1 <0>        -0.5149
      9 C6         -3.5713   -7.2861    0.4898 C.3       1 <0>        -0.1132
     10 H1         -2.9469   -7.7689    1.2415 H         1 <0>         0.1128
     11 C7         -2.9888   -7.5172   -0.9226 C.3       1 <0>         0.0996
     12 N2         -3.7182   -8.6990   -1.4396 N.am      1 <0>        -0.6172
     13 C8         -5.1115   -8.5063   -0.9711 C.3       1 <0>         0.1113
     14 C9         -4.9647   -7.9359    0.4535 C.3       1 <0>        -0.0728
     15 C10        -6.0430   -6.8889    0.7157 C.3       1 <0>        -0.1470
     16 C11        -7.4150   -7.5689    0.7328 C.3       1 <0>        -0.0078
     17 N3         -7.4399   -8.5986    1.7786 N.4       1 <0>        -0.5045
     18 C12        -6.4634   -9.6501    1.4692 C.3       1 <0>        -0.0114
     19 C13        -5.0513   -9.0582    1.4833 C.3       1 <0>        -0.1342
     20 C14        -3.2259   -9.7190   -2.1702 C.2       1 <0>         0.5831
     21 O2         -3.9746  -10.5728   -2.6039 O.2       1 <0>        -0.4926
     22 C15        -1.7757   -9.7995   -2.4440 C.ar      1 <0>        -0.0719
     23 C16        -1.0375   -8.6345   -2.6577 C.ar      1 <0>        -0.1269
     24 C17         0.3203   -8.7176   -2.9131 C.ar      1 <0>         0.1436
     25 C18         0.9454   -9.9569   -2.9565 C.ar      1 <0>        -0.1765
     26 C19         0.2168  -11.1121   -2.7453 C.ar      1 <0>        -0.0501
     27 C20        -1.1378  -11.0412   -2.4843 C.ar      1 <0>        -0.0859
     28 Br1        -2.1289  -12.6244   -2.1889 Br        1 <0>        -0.0191
     29 O3          1.0424   -7.5851   -3.1221 O.3       1 <0>        -0.3091
     30 C21         2.4389   -7.7446   -3.3802 C.3       1 <0>         0.0213
     31 H2         -3.5309   -0.2601    7.4799 H         1 <0>         0.0773
     32 H3         -2.8466    0.2456    5.9165 H         1 <0>         0.0684
     33 H4         -4.6082    0.0709    6.1022 H         1 <0>         0.0671
     34 H5         -2.5683   -2.1940    6.2624 H         1 <0>         0.0834
     35 H6         -4.3299   -2.3686    6.4481 H         1 <0>         0.0815
     36 H7         -2.6061   -4.0448    4.1633 H         1 <0>         0.0892
     37 H8         -4.3677   -4.2195    4.3490 H         1 <0>         0.0846
     38 H9         -4.6825   -3.5654    1.9779 H         1 <0>         0.0822
     39 H10        -2.9209   -3.3908    1.7922 H         1 <0>         0.0848
     40 H11        -3.4599   -5.9850    2.7701 H         1 <0>         0.4007
     41 H12        -3.1731   -6.6497   -1.5563 H         1 <0>         0.1044
     42 H13        -1.9205   -7.7257   -0.8636 H         1 <0>         0.1019
     43 H14        -5.6343   -7.7978   -1.6136 H         1 <0>         0.0876
     44 H15        -5.6396   -9.4595   -0.9457 H         1 <0>         0.0913
     45 H16        -5.8610   -6.4125    1.6790 H         1 <0>         0.0963
     46 H17        -6.0195   -6.1369   -0.0730 H         1 <0>         0.1272
     47 H18        -8.1860   -6.8258    0.9365 H         1 <0>         0.1397
     48 H19        -7.6033   -8.0309   -0.2362 H         1 <0>         0.1343
     49 H20        -7.2104   -8.1793    2.6672 H         1 <0>         0.4270
     50 H21        -6.5330  -10.4413    2.2158 H         1 <0>         0.1400
     51 H22        -6.6744  -10.0626    0.4826 H         1 <0>         0.1350
     52 H23        -4.3284   -9.8356    1.2359 H         1 <0>         0.1192
     53 H24        -4.8334   -8.6602    2.4744 H         1 <0>         0.0960
     54 H25        -1.5243   -7.6710   -2.6241 H         1 <0>         0.1482
     55 H26         2.0049  -10.0182   -3.1564 H         1 <0>         0.1466
     56 H27         0.7087  -12.0730   -2.7807 H         1 <0>         0.1472
     57 H28         2.8950   -6.7658   -3.5286 H         1 <0>         0.1093
     58 H29         2.9108   -8.2405   -2.5321 H         1 <0>         0.0615
     59 H30         2.5759   -8.3490   -4.2769 H         1 <0>         0.0626
     60 H31        -8.3630   -9.0029    1.8288 H         1 <0>         0.4345
@<TRIPOS>BOND
     1    1    2 1
     2    1   31 1
     3    1   32 1
     4    1   33 1
     5    2    3 1
     6    2   34 1
     7    2   35 1
     8    3    4 1
     9    4    5 1
    10    4   36 1
    11    4   37 1
    12    5    6 1
    13    5   38 1
    14    5   39 1
    15    6    7 am
    16    6   40 1
    17    7    8 2
    18    7    9 1
    19    9   10 1
    20    9   14 1
    21    9   11 1
    22   11   12 1
    23   11   41 1
    24   11   42 1
    25   12   13 1
    26   12   20 am
    27   13   14 1
    28   13   43 1
    29   13   44 1
    30   14   19 1
    31   14   15 1
    32   15   16 1
    33   15   45 1
    34   15   46 1
    35   16   17 1
    36   16   47 1
    37   16   48 1
    38   17   18 1
    39   17   49 1
    40   17   60 1
    41   18   19 1
    42   18   50 1
    43   18   51 1
    44   19   52 1
    45   19   53 1
    46   20   21 2
    47   20   22 1
    48   22   27 ar
    49   22   23 ar
    50   23   24 ar
    51   23   54 1
    52   24   25 ar
    53   24   29 1
    54   25   26 ar
    55   25   55 1
    56   26   27 ar
    57   26   56 1
    58   27   28 1
    59   29   30 1
    60   30   57 1
    61   30   58 1
    62   30   59 1
@<TRIPOS>MOLECULE
ZINC39696719
   71    74     0     0     0
SMALL
USER_CHARGES

@<TRIPOS>ATOM
      1 C1          1.0662   -0.3284   -1.4460 C.3       1 <0>        -0.1486
      2 C2          0.3572    0.4598   -0.3428 C.3       1 <0>        -0.0717
      3 C3          1.1103    0.2800    0.9769 C.3       1 <0>        -0.0960
      4 C4          0.4014    1.0681    2.0801 C.3       1 <0>        -0.1298
      5 C5          0.3713    2.5519    1.7081 C.3       1 <0>        -0.1227
      6 C6         -0.3818    2.7316    0.3885 C.3       1 <0>        -0.1201
      7 C7          0.3271    1.9435   -0.7148 C.3       1 <0>        -0.1163
      8 C8         -1.0532   -0.0484   -0.1895 C.2       1 <0>         0.5638
      9 O1         -1.3810   -0.6317    0.8221 O.2       1 <0>        -0.5286
     10 N1         -1.9503    0.1453   -1.1765 N.am      1 <0>        -0.6155
     11 C9         -1.7131    0.7293   -2.5177 C.3       1 <0>         0.1054
     12 C10        -2.5787   -0.1226   -3.4730 C.3       1 <0>        -0.1155
     13 H1         -3.0145    0.5042   -4.2509 H         1 <0>         0.1151
     14 C11        -3.6828   -0.7136   -2.5804 C.3       1 <0>        -0.0703
     15 C12        -3.3958   -0.1837   -1.1680 C.3       1 <0>         0.1052
     16 C13        -3.6110   -2.2375   -2.5901 C.3       1 <0>        -0.1458
     17 C14        -4.7534   -2.8030   -1.7415 C.3       1 <0>        -0.0088
     18 N2         -6.0396   -2.3501   -2.2852 N.4       1 <0>        -0.5045
     19 C15        -6.1384   -0.8889   -2.1867 C.3       1 <0>        -0.0094
     20 C16        -5.0544   -0.2424   -3.0539 C.3       1 <0>        -0.1340
     21 C17        -1.7531   -1.2230   -4.0884 C.2       1 <0>         0.5144
     22 O2         -0.8649   -1.7450   -3.4485 O.2       1 <0>        -0.5161
     23 N3         -2.0018   -1.6270   -5.3499 N.am      1 <0>        -0.7205
     24 C18        -1.1993   -2.6967   -5.9481 C.3       1 <0>         0.1289
     25 C19        -1.6835   -2.9602   -7.3754 C.3       1 <0>         0.0826
     26 H2         -1.5783   -2.0521   -7.9690 H         1 <0>         0.0780
     27 C20        -0.8468   -4.0795   -8.0006 C.3       1 <0>         0.0239
     28 N4         -1.3658   -4.3812   -9.3426 N.3       1 <0>        -0.5410
     29 C21        -2.7780   -4.7844   -9.2764 C.3       1 <0>         0.0129
     30 C22        -3.5954   -3.6581   -8.6384 C.3       1 <0>         0.0660
     31 O3         -3.0575   -3.3563   -7.3480 O.3       1 <0>        -0.3862
     32 C23        -0.5540   -5.4131  -10.0013 C.3       1 <0>         0.0222
     33 H3          2.0371    0.1237   -1.6489 H         1 <0>         0.0668
     34 H4          1.2061   -1.3600   -1.1231 H         1 <0>         0.0622
     35 H5          0.4605   -0.3102   -2.3521 H         1 <0>         0.0767
     36 H6          1.1318   -0.7771    1.2419 H         1 <0>         0.0696
     37 H7          2.1305    0.6476    0.8660 H         1 <0>         0.0718
     38 H8         -0.6188    0.7005    2.1910 H         1 <0>         0.0784
     39 H9          0.9379    0.9400    3.0202 H         1 <0>         0.0636
     40 H10        -0.1338    3.1133    2.4941 H         1 <0>         0.0625
     41 H11         1.3914    2.9194    1.5972 H         1 <0>         0.0640
     42 H12        -1.4020    2.3641    0.4993 H         1 <0>         0.0550
     43 H13        -0.4033    3.7887    0.1235 H         1 <0>         0.0670
     44 H14         1.3473    2.3111   -0.8256 H         1 <0>         0.0786
     45 H15        -0.2094    2.0716   -1.6549 H         1 <0>         0.0680
     46 H16        -2.0341    1.7707   -2.5409 H         1 <0>         0.0887
     47 H17        -0.6597    0.6493   -2.7862 H         1 <0>         0.1071
     48 H18        -3.6068   -0.9520   -0.4242 H         1 <0>         0.0869
     49 H19        -3.9883    0.7100   -0.9718 H         1 <0>         0.0817
     50 H20        -3.7045   -2.5997   -3.6139 H         1 <0>         0.0955
     51 H21        -2.6558   -2.5595   -2.1754 H         1 <0>         0.1250
     52 H22        -4.7147   -3.8921   -1.7600 H         1 <0>         0.1370
     53 H23        -4.6501   -2.4535   -0.7143 H         1 <0>         0.1336
     54 H24        -6.1100   -2.6262   -3.2531 H         1 <0>         0.4280
     55 H25        -7.1204   -0.5672   -2.5334 H         1 <0>         0.1393
     56 H26        -6.0024   -0.5848   -1.1489 H         1 <0>         0.1322
     57 H27        -5.1169    0.8422   -2.9660 H         1 <0>         0.1209
     58 H28        -5.1996   -0.5327   -4.0944 H         1 <0>         0.0978
     59 H29        -2.7122   -1.2095   -5.8617 H         1 <0>         0.4043
     60 H30        -0.1517   -2.3964   -5.9695 H         1 <0>         0.0894
     61 H31        -1.3048   -3.6051   -5.3551 H         1 <0>         0.0772
     62 H32         0.1922   -3.7586   -8.0758 H         1 <0>         0.0921
     63 H33        -0.9086   -4.9717   -7.3774 H         1 <0>         0.0474
     64 H34        -3.1488   -4.9781  -10.2829 H         1 <0>         0.0912
     65 H35        -2.8707   -5.6878   -8.6736 H         1 <0>         0.0445
     66 H36        -3.5463   -2.7704   -9.2691 H         1 <0>         0.0637
     67 H37        -4.6332   -3.9750   -8.5350 H         1 <0>         0.1011
     68 H38        -0.5735   -6.3258   -9.4058 H         1 <0>         0.0304
     69 H39        -0.9599   -5.6171  -10.9922 H         1 <0>         0.0753
     70 H40         0.4737   -5.0622  -10.0948 H         1 <0>         0.0750
     71 H41        -6.7918   -2.7727   -1.7621 H         1 <0>         0.4333
@<TRIPOS>BOND
     1    1    2 1
     2    1   33 1
     3    1   34 1
     4    1   35 1
     5    2    7 1
     6    2    3 1
     7    2    8 1
     8    3    4 1
     9    3   36 1
    10    3   37 1
    11    4    5 1
    12    4   38 1
    13    4   39 1
    14    5    6 1
    15    5   40 1
    16    5   41 1
    17    6    7 1
    18    6   42 1
    19    6   43 1
    20    7   44 1
    21    7   45 1
    22    8    9 2
    23    8   10 am
    24   10   15 1
    25   10   11 1
    26   11   12 1
    27   11   46 1
    28   11   47 1
    29   12   13 1
    30   12   14 1
    31   12   21 1
    32   14   20 1
    33   14   15 1
    34   14   16 1
    35   15   48 1
    36   15   49 1
    37   16   17 1
    38   16   50 1
    39   16   51 1
    40   17   18 1
    41   17   52 1
    42   17   53 1
    43   18   19 1
    44   18   54 1
    45   18   71 1
    46   19   20 1
    47   19   55 1
    48   19   56 1
    49   20   57 1
    50   20   58 1
    51   21   22 2
    52   21   23 am
    53   23   24 1
    54   23   59 1
    55   24   25 1
    56   24   60 1
    57   24   61 1
    58   25   26 1
    59   25   31 1
    60   25   27 1
    61   27   28 1
    62   27   62 1
    63   27   63 1
    64   28   29 1
    65   28   32 1
    66   29   30 1
    67   29   64 1
    68   29   65 1
    69   30   31 1
    70   30   66 1
    71   30   67 1
    72   32   68 1
    73   32   69 1
    74   32   70 1
@<TRIPOS>MOLECULE
ZINC05451293
   57    61     0     0     0
SMALL
USER_CHARGES

@<TRIPOS>ATOM
      1 C1          0.8810   -0.2012   -1.2293 C.3       1 <0>        -0.1535
      2 C2         -0.0259   -0.0533   -0.0059 C.3       1 <0>        -0.1042
      3 C3         -1.3295   -0.8186   -0.2420 C.3       1 <0>        -0.1646
      4 C4          0.6827   -0.6207    1.2257 C.3       1 <0>        -0.1361
      5 C5         -0.1607   -0.3438    2.4719 C.3       1 <0>         0.0401
      6 H1         -1.1582   -0.7675    2.3558 H         1 <0>         0.1618
      7 C6          0.5271   -0.9248    3.7260 C.3       1 <0>        -0.1398
      8 H2          1.5914   -1.1062    3.5758 H         1 <0>         0.1754
      9 C7          0.2429    0.1097    4.8506 C.3       1 <0>        -0.1212
     10 H3          1.1526    0.4755    5.3267 H         1 <0>         0.1768
     11 C8         -0.6470   -0.6507    5.8072 C.2       1 <0>         0.5348
     12 O1         -1.1116   -0.2065    6.8350 O.2       1 <0>        -0.4243
     13 N1         -0.8427   -1.8901    5.3426 N.am      1 <0>        -0.5551
     14 C9         -0.2191   -2.1617    4.1725 C.2       1 <0>         0.5390
     15 O2         -0.2501   -3.2153    3.5737 O.2       1 <0>        -0.4345
     16 C10        -1.6611   -2.8802    6.0470 C.3       1 <0>         0.0999
     17 C11        -3.1122   -2.7717    5.5742 C.3       1 <0>         0.0682
     18 H4         -3.1732   -2.9438    4.4996 H         1 <0>         0.0758
     19 C12        -4.0024   -3.7878    6.3330 C.3       1 <0>        -0.1494
     20 C13        -5.3925   -3.1047    6.2188 C.3       1 <0>        -0.1543
     21 C14        -5.0269   -1.6059    6.2780 C.3       1 <0>         0.0528
     22 O3         -3.6486   -1.4805    5.9037 O.3       1 <0>        -0.3625
     23 C15        -0.5481    1.2263    4.1592 C.3       1 <0>         0.0956
     24 N2         -0.2461    1.1191    2.7244 N.4       1 <0>        -0.4906
     25 C16        -0.1922    2.5772    4.7122 C.ar      1 <0>        -0.1764
     26 C17         0.9859    3.2849    4.7988 C.ar      1 <0>        -0.0801
     27 C18         0.9975    4.5428    5.3792 C.ar      1 <0>         0.0982
     28 C19        -0.1785    5.0846    5.8707 C.ar      1 <0>        -0.0773
     29 C20        -1.3595    4.3773    5.7854 C.ar      1 <0>        -0.0944
     30 C21        -1.3792    3.1122    5.2032 C.ar      1 <0>         0.1686
     31 N3         -2.4322    2.2151    5.0036 N.am      1 <0>        -0.6333
     32 C22        -2.0263    1.0830    4.3970 C.2       1 <0>         0.5168
     33 O4         -2.7187    0.1325    4.0999 O.2       1 <0>        -0.4109
     34 F1          2.1523    5.2386    5.4657 F         1 <0>        -0.1176
     35 H5          1.1729   -1.2455   -1.3411 H         1 <0>         0.0673
     36 H6          0.3445    0.1235   -2.1207 H         1 <0>         0.0687
     37 H7          1.7719    0.4129   -1.0975 H         1 <0>         0.0623
     38 H8         -0.2479    1.0014    0.1563 H         1 <0>         0.0635
     39 H9         -1.1074   -1.8733   -0.4043 H         1 <0>         0.0720
     40 H10        -1.9756   -0.7132    0.6295 H         1 <0>         0.0506
     41 H11        -1.8343   -0.4144   -1.1195 H         1 <0>         0.0716
     42 H12         0.8128   -1.6963    1.1067 H         1 <0>         0.1273
     43 H13         1.6581   -0.1465    1.3344 H         1 <0>         0.1006
     44 H14        -1.2838   -3.8806    5.8349 H         1 <0>         0.1148
     45 H15        -1.6136   -2.6938    7.1199 H         1 <0>         0.1080
     46 H16        -4.0000   -4.7588    5.8378 H         1 <0>         0.0899
     47 H17        -3.6941   -3.8793    7.3745 H         1 <0>         0.0847
     48 H18        -5.8688   -3.3506    5.2697 H         1 <0>         0.0787
     49 H19        -6.0310   -3.3817    7.0577 H         1 <0>         0.0874
     50 H20        -5.6503   -1.0454    5.5814 H         1 <0>         0.0670
     51 H21        -5.1718   -1.2297    7.2908 H         1 <0>         0.0696
     52 H22         0.6377    1.5637    2.5259 H         1 <0>         0.4395
     53 H23         1.9010    2.8591    4.4146 H         1 <0>         0.1540
     54 H24        -0.1706    6.0652    6.3233 H         1 <0>         0.1630
     55 H25        -2.2725    4.8063    6.1712 H         1 <0>         0.1560
     56 H26        -3.3485    2.3874    5.2714 H         1 <0>         0.4387
     57 H27        -0.9823    1.5305    2.1705 H         1 <0>         0.4408
@<TRIPOS>BOND
     1    1    2 1
     2    1   35 1
     3    1   36 1
     4    1   37 1
     5    2    3 1
     6    2    4 1
     7    2   38 1
     8    3   39 1
     9    3   40 1
    10    3   41 1
    11    4    5 1
    12    4   42 1
    13    4   43 1
    14    5    6 1
    15    5   24 1
    16    5    7 1
    17    7    8 1
    18    7   14 1
    19    7    9 1
    20    9   10 1
    21    9   11 1
    22    9   23 1
    23   11   12 2
    24   11   13 am
    25   13   14 am
    26   13   16 1
    27   14   15 2
    28   16   17 1
    29   16   44 1
    30   16   45 1
    31   17   18 1
    32   17   22 1
    33   17   19 1
    34   19   20 1
    35   19   46 1
    36   19   47 1
    37   20   21 1
    38   20   48 1
    39   20   49 1
    40   21   22 1
    41   21   50 1
    42   21   51 1
    43   23   32 1
    44   23   24 1
    45   23   25 1
    46   24   52 1
    47   24   57 1
    48   25   30 ar
    49   25   26 ar
    50   26   27 ar
    51   26   53 1
    52   27   28 ar
    53   27   34 1
    54   28   29 ar
    55   28   54 1
    56   29   30 ar
    57   29   55 1
    58   30   31 1
    59   31   32 am
    60   31   56 1
    61   32   33 2
@<TRIPOS>MOLECULE
ZINC66761207
   52    54     0     0     0
SMALL
USER_CHARGES

@<TRIPOS>ATOM
      1 C1          0.0063    1.5027    0.0509 C.3       1 <0>        -0.1564
      2 C2          0.0192   -0.0272    0.0332 C.3       1 <0>        -0.1481
      3 C3         -1.4189   -0.5494    0.0374 C.3       1 <0>        -0.0091
      4 N1         -1.4065   -2.0183    0.0205 N.4       1 <0>        -0.3853
      5 C4         -0.9316   -2.5487    1.3186 C.3       1 <0>         0.0436
      6 C5         -2.1724   -2.7359    2.1619 C.ar      1 <0>        -0.1063
      7 C6         -2.3439   -2.8927    3.5247 C.ar      1 <0>        -0.0928
      8 C7         -3.6123   -3.0494    4.0523 C.ar      1 <0>        -0.0668
      9 C8         -4.7137   -3.0499    3.2187 C.ar      1 <0>        -0.1117
     10 C9         -4.5459   -2.8927    1.8491 C.ar      1 <0>         0.2052
     11 C10        -3.2713   -2.7355    1.3220 C.ar      1 <0>        -0.1788
     12 C11        -2.7840   -2.5481   -0.0967 C.3       1 <0>         0.0502
     13 N2         -5.6589   -2.8932    1.0024 N.am      1 <0>        -0.6748
     14 C12        -6.8701   -2.5463    1.4813 C.2       1 <0>         0.5670
     15 O1         -6.9786   -2.1367    2.6206 O.2       1 <0>        -0.4927
     16 C13        -8.0663   -2.6639    0.6210 C.ar      1 <0>        -0.1666
     17 C14        -7.9459   -3.1393   -0.6861 C.ar      1 <0>        -0.0323
     18 C15        -9.0662   -3.2465   -1.4836 C.ar      1 <0>        -0.1400
     19 C16       -10.3074   -2.8841   -0.9907 C.ar      1 <0>         0.0196
     20 C17       -10.4337   -2.4118    0.3034 C.ar      1 <0>        -0.6834
     21 C18        -9.3220   -2.3055    1.1138 C.ar      1 <0>         0.0433
     22 S1        -12.0187   -1.9525    0.9209 S.o2      1 <0>         2.6952
     23 O2        -11.7913   -1.0284    1.9762 O.2       1 <0>        -0.9417
     24 O3        -12.8189   -1.6358   -0.2099 O.2       1 <0>        -0.9427
     25 N3        -12.6859   -3.3026    1.6096 N.pl3     1 <0>        -1.1135
     26 C19       -12.0686   -3.9010    2.7958 C.3       1 <0>         0.2313
     27 C20       -13.0149   -4.8393    3.4210 C.1       1 <0>        -0.2187
     28 C21       -13.7697   -5.5876    3.9196 C.1       1 <0>        -0.1497
     29 H1          1.0308    1.8747    0.0479 H         1 <0>         0.0786
     30 H2         -0.5169    1.8718   -0.8313 H         1 <0>         0.0672
     31 H3         -0.5043    1.8514    0.9485 H         1 <0>         0.0671
     32 H4          0.5298   -0.3759   -0.8645 H         1 <0>         0.0873
     33 H5          0.5424   -0.3963    0.9153 H         1 <0>         0.0855
     34 H6         -1.9295   -0.2007    0.9351 H         1 <0>         0.1301
     35 H7         -1.9421   -0.1803   -0.8447 H         1 <0>         0.1319
     36 H8         -0.4275   -3.5042    1.1732 H         1 <0>         0.1488
     37 H9         -0.2579   -1.8352    1.7931 H         1 <0>         0.1432
     38 H10        -1.4847   -2.8931    4.1791 H         1 <0>         0.1405
     39 H11        -3.7420   -3.1720    5.1175 H         1 <0>         0.1484
     40 H12        -5.7041   -3.1727    3.6315 H         1 <0>         0.1635
     41 H13        -3.4187   -1.8341   -0.6216 H         1 <0>         0.1350
     42 H14        -2.7767   -3.5033   -0.6217 H         1 <0>         0.1452
     43 H15        -5.5593   -3.1432    0.0705 H         1 <0>         0.4119
     44 H16        -6.9777   -3.4222   -1.0721 H         1 <0>         0.1316
     45 H17        -8.9744   -3.6138   -2.4951 H         1 <0>         0.1473
     46 H18       -11.1815   -2.9699   -1.6193 H         1 <0>         0.1538
     47 H19        -9.4226   -1.9415    2.1256 H         1 <0>         0.1590
     48 H20       -13.4855   -3.6972    1.2277 H         1 <0>         0.4265
     49 H21       -11.1651   -4.4365    2.5042 H         1 <0>         0.0872
     50 H22       -11.8120   -3.1159    3.5071 H         1 <0>         0.1057
     51 H23       -14.4448   -6.2569    4.3655 H         1 <0>         0.2246
     52 H24        -0.8308   -2.3586   -0.7351 H         1 <0>         0.4362
@<TRIPOS>BOND
     1    1    2 1
     2    1   29 1
     3    1   30 1
     4    1   31 1
     5    2    3 1
     6    2   32 1
     7    2   33 1
     8    3    4 1
     9    3   34 1
    10    3   35 1
    11    4   12 1
    12    4    5 1
    13    4   52 1
    14    5    6 1
    15    5   36 1
    16    5   37 1
    17    6   11 ar
    18    6    7 ar
    19    7    8 ar
    20    7   38 1
    21    8    9 ar
    22    8   39 1
    23    9   10 ar
    24    9   40 1
    25   10   11 ar
    26   10   13 1
    27   11   12 1
    28   12   41 1
    29   12   42 1
    30   13   14 am
    31   13   43 1
    32   14   15 2
    33   14   16 1
    34   16   21 ar
    35   16   17 ar
    36   17   18 ar
    37   17   44 1
    38   18   19 ar
    39   18   45 1
    40   19   20 ar
    41   19   46 1
    42   20   21 ar
    43   20   22 1
    44   21   47 1
    45   22   23 2
    46   22   24 2
    47   22   25 1
    48   25   26 1
    49   25   48 1
    50   26   27 1
    51   26   49 1
    52   26   50 1
    53   27   28 3
    54   28   51 1
@<TRIPOS>MOLECULE
ZINC20759350
   56    59     0     0     0
SMALL
USER_CHARGES
2-[[4-imino-3-methyl-5-(p-tolyl)-1H-pyrazolo[5,4-d]pyrimidin-6-yl]sulfanyl]-1-(4-methyl-1-piperidyl)ethanone
@<TRIPOS>ATOM
      1 C1         -9.0663    1.8057   -2.3930 C.3       1 <0>        -0.1357
      2 C2         -7.8495    1.8785   -1.5069 C.ar      1 <0>        -0.0327
      3 C3         -7.4171    3.1014   -1.0277 C.ar      1 <0>        -0.0970
      4 C4         -6.3022    3.1714   -0.2155 C.ar      1 <0>        -0.0747
      5 C5         -5.6154    2.0121    0.1198 C.ar      1 <0>         0.0174
      6 C6         -6.0487    0.7862   -0.3677 C.ar      1 <0>        -0.0999
      7 C7         -7.1674    0.7223   -1.1752 C.ar      1 <0>        -0.1001
      8 N1         -4.4845    2.0797    0.9433 N.pl3     1 <0>        -0.4455
      9 C8         -3.2383    1.7314    0.4460 C.cat     1 <0>         0.5924
     10 N2         -3.0857    1.3336   -0.7934 N.pl3     1 <0>        -0.7650
     11 C9         -2.0947    1.8321    1.3626 C.2       1 <0>        -0.3245
     12 C10        -0.7181    1.5718    1.2479 C.2       1 <0>         0.1511
     13 N3         -0.1541    1.8282    2.3967 N.2       1 <0>        -0.2349
     14 N4         -1.1267    2.2578    3.3080 N.pl3     1 <0>        -0.4470
     15 H1         -0.8385    2.5219    4.3362 H         1 <0>         0.4981
     16 C11        -2.3319    2.2592    2.6762 C.2       1 <0>         0.4045
     17 N5         -3.5795    2.5727    3.0572 N.2       1 <0>        -0.5269
     18 C12        -4.6035    2.4904    2.2433 C.2       1 <0>         0.3896
     19 S1         -6.1998    2.9274    2.8478 S.3       1 <0>         0.1715
     20 C13        -5.7795    3.3742    4.5507 C.3       1 <0>        -0.1710
     21 C14        -7.0281    3.7942    5.2826 C.2       1 <0>         0.5325
     22 O1         -8.0969    3.7917    4.7094 O.2       1 <0>        -0.5253
     23 N6         -6.9571    4.1725    6.5743 N.am      1 <0>        -0.5979
     24 C15        -5.6705    4.1749    7.2839 C.3       1 <0>         0.0987
     25 C16        -5.4549    5.5657    7.8998 C.3       1 <0>        -0.1318
     26 C17        -6.6573    5.9203    8.7778 C.3       1 <0>        -0.0944
     27 C18        -7.9229    5.9654    7.9185 C.3       1 <0>        -0.1316
     28 C19        -8.1656    4.5846    7.3012 C.3       1 <0>         0.1076
     29 C20        -6.4307    7.2887    9.4238 C.3       1 <0>        -0.1512
     30 C21        -0.0127    1.0858    0.0080 C.3       1 <0>        -0.1101
     31 H2         -9.4705    2.8174   -2.5446 H         1 <0>         0.0786
     32 H3         -9.8298    1.1734   -1.9162 H         1 <0>         0.0868
     33 H4         -8.7867    1.3731   -3.3650 H         1 <0>         0.0854
     34 H5         -7.9515    4.0028   -1.2891 H         1 <0>         0.1490
     35 H6         -5.9648    4.1269    0.1582 H         1 <0>         0.1424
     36 H7         -5.5140   -0.1167   -0.1123 H         1 <0>         0.1379
     37 H8         -7.5073   -0.2313   -1.5513 H         1 <0>         0.1479
     38 H9         -2.0865    1.0625   -1.1650 H         1 <0>         0.4761
     39 H10        -5.3317    2.5067    5.0575 H         1 <0>         0.1384
     40 H11        -5.0605    4.2067    4.5446 H         1 <0>         0.1388
     41 H12        -5.6875    3.4123    8.0764 H         1 <0>         0.0803
     42 H13        -4.8603    3.9490    6.5750 H         1 <0>         0.0851
     43 H14        -4.5409    5.5580    8.5118 H         1 <0>         0.0817
     44 H15        -5.3522    6.3104    7.0968 H         1 <0>         0.0694
     45 H16        -6.7748    5.1587    9.5627 H         1 <0>         0.0757
     46 H17        -8.7823    6.2444    8.5459 H         1 <0>         0.0832
     47 H18        -7.7964    6.7093    7.1182 H         1 <0>         0.0692
     48 H19        -9.0148    4.6320    6.6036 H         1 <0>         0.0989
     49 H20        -8.3832    3.8544    8.0946 H         1 <0>         0.0762
     50 H21        -7.2948    7.5438   10.0549 H         1 <0>         0.0600
     51 H22        -6.3127    8.0499    8.6385 H         1 <0>         0.0556
     52 H23        -5.5217    7.2561   10.0424 H         1 <0>         0.0583
     53 H24         1.0611    0.9721    0.2178 H         1 <0>         0.1071
     54 H25        -0.1526    1.8154   -0.8032 H         1 <0>         0.0952
     55 H26        -0.4318    0.1151   -0.2956 H         1 <0>         0.0948
     56 H27        -3.9569    1.2708   -1.4621 H         1 <0>         0.4618
@<TRIPOS>BOND
     1    1    2 1
     2    1   31 1
     3    1   32 1
     4    1   33 1
     5    2    7 ar
     6    2    3 ar
     7    3    4 ar
     8    3   34 1
     9    4    5 ar
    10    4   35 1
    11    5    6 ar
    12    5    8 1
    13    6    7 ar
    14    6   36 1
    15    7   37 1
    16    8   18 1
    17    8    9 1
    18    9   10 2
    19    9   11 1
    20   10   38 1
    21   10   56 1
    22   11   16 2
    23   11   12 1
    24   12   13 2
    25   12   30 1
    26   13   14 1
    27   14   15 1
    28   14   16 1
    29   16   17 1
    30   17   18 2
    31   18   19 1
    32   19   20 1
    33   20   21 1
    34   20   39 1
    35   20   40 1
    36   21   22 2
    37   21   23 am
    38   23   28 1
    39   23   24 1
    40   24   25 1
    41   24   41 1
    42   24   42 1
    43   25   26 1
    44   25   43 1
    45   25   44 1
    46   26   27 1
    47   26   29 1
    48   26   45 1
    49   27   28 1
    50   27   46 1
    51   27   47 1
    52   28   48 1
    53   28   49 1
    54   29   50 1
    55   29   51 1
    56   29   52 1
    57   30   53 1
    58   30   54 1
    59   30   55 1
@<TRIPOS>MOLECULE
ZINC03672208
   46    47     0     0     0
SMALL
USER_CHARGES

@<TRIPOS>ATOM
      1 C1         -0.0370   -3.4876    3.3851 C.3       1 <0>        -0.1688
      2 C2         -0.8807   -2.8828    2.2927 C.2       1 <0>         0.5108
      3 O1         -2.0089   -2.5091    2.5343 O.2       1 <0>        -0.4825
      4 N1         -0.3815   -2.7573    1.0470 N.am      1 <0>        -0.7388
      5 C3         -1.2333   -2.2617   -0.0369 C.3       1 <0>         0.3185
      6 C4         -1.4101   -0.7485    0.1046 C.3       1 <0>         0.4526
      7 F1         -0.1730   -0.1169   -0.0622 F         1 <0>        -0.1460
      8 F2         -2.3029   -0.2901   -0.8701 F         1 <0>        -0.1554
      9 F3         -1.9160   -0.4549    1.3754 F         1 <0>        -0.1354
     10 C5         -0.5787   -2.5749   -1.3839 C.3       1 <0>         0.4450
     11 F4         -0.3156   -3.9465   -1.4667 F         1 <0>        -0.1522
     12 F5         -1.4419   -2.2023   -2.4198 F         1 <0>        -0.1429
     13 F6          0.6200   -1.8625   -1.4967 F         1 <0>        -0.1467
     14 N2         -2.5427   -2.9150    0.0333 N.pl3     1 <0>        -0.6588
     15 C6         -2.6241   -4.2787    0.2370 C.2       1 <0>         0.1317
     16 C7         -3.7619   -5.0767    0.2329 C.2       1 <0>        -0.2372
     17 C8         -3.5730   -6.4948    0.4758 C.2       1 <0>        -0.0141
     18 C9         -2.2874   -6.8577    0.6795 C.2       1 <0>        -0.3223
     19 S1         -1.3697   -5.3544    0.5393 S.3       1 <0>         0.3041
     20 C10        -1.7945   -8.2431    0.9568 C.3       1 <0>         0.1080
     21 N3         -2.9469   -9.0751    1.3494 N.4       1 <0>        -0.3856
     22 C11        -4.0256   -8.9199    0.3647 C.3       1 <0>        -0.0025
     23 C12        -4.6783   -7.5410    0.5092 C.3       1 <0>        -0.0915
     24 C13        -2.5359  -10.4843    1.4064 C.3       1 <0>        -0.0462
     25 C14        -5.0900   -4.5125   -0.0051 C.2       1 <0>         0.5214
     26 O2         -5.5257   -4.4396   -1.1387 O.2       1 <0>        -0.4805
     27 O3         -5.8320   -4.0730    1.0323 O.3       1 <0>        -0.3427
     28 C15        -7.1196   -3.5339    0.7267 C.3       1 <0>         0.0279
     29 H1         -0.6052   -3.5058    4.3151 H         1 <0>         0.1083
     30 H2          0.2405   -4.5048    3.1089 H         1 <0>         0.0972
     31 H3          0.8640   -2.8895    3.5215 H         1 <0>         0.1041
     32 H4          0.5417   -2.9952    0.8683 H         1 <0>         0.4293
     33 H5         -3.3525   -2.3898   -0.0632 H         1 <0>         0.4373
     34 H6         -1.3326   -8.6551    0.0597 H         1 <0>         0.1434
     35 H7         -1.0662   -8.2184    1.7674 H         1 <0>         0.1436
     36 H8         -3.6151   -9.0217   -0.6399 H         1 <0>         0.1354
     37 H9         -4.7762   -9.6936    0.5261 H         1 <0>         0.1419
     38 H10        -5.2123   -7.4833    1.4577 H         1 <0>         0.1127
     39 H11        -5.3708   -7.3724   -0.3155 H         1 <0>         0.1256
     40 H12        -1.7372  -10.6005    2.1390 H         1 <0>         0.1280
     41 H13        -3.3874  -11.0997    1.6965 H         1 <0>         0.1282
     42 H14        -2.1779  -10.7983    0.4258 H         1 <0>         0.1252
     43 H15        -7.6095   -3.2186    1.6479 H         1 <0>         0.1101
     44 H16        -7.0064   -2.6764    0.0634 H         1 <0>         0.0653
     45 H17        -7.7251   -4.2956    0.2355 H         1 <0>         0.0653
     46 H18        -3.2769   -8.7849    2.2577 H         1 <0>         0.4294
@<TRIPOS>BOND
     1    1    2 1
     2    1   29 1
     3    1   30 1
     4    1   31 1
     5    2    3 2
     6    2    4 am
     7    4    5 1
     8    4   32 1
     9    5    6 1
    10    5   10 1
    11    5   14 1
    12    6    7 1
    13    6    8 1
    14    6    9 1
    15   10   11 1
    16   10   12 1
    17   10   13 1
    18   14   15 1
    19   14   33 1
    20   15   19 1
    21   15   16 2
    22   16   17 1
    23   16   25 1
    24   17   23 1
    25   17   18 2
    26   18   19 1
    27   18   20 1
    28   20   21 1
    29   20   34 1
    30   20   35 1
    31   21   22 1
    32   21   24 1
    33   21   46 1
    34   22   23 1
    35   22   36 1
    36   22   37 1
    37   23   38 1
    38   23   39 1
    39   24   40 1
    40   24   41 1
    41   24   42 1
    42   25   26 2
    43   25   27 1
    44   27   28 1
    45   28   43 1
    46   28   44 1
    47   28   45 1
@<TRIPOS>MOLECULE
ZINC39746940
   45    48     0     0     0
SMALL
USER_CHARGES

@<TRIPOS>ATOM
      1 C1          0.3520    0.8323    2.3443 C.ar      1 <0>        -0.1664
      2 C2          1.5289    1.5895    2.3029 C.ar      1 <0>         0.1026
      3 C3          2.6645    1.1464    1.7105 C.ar      1 <0>        -0.2326
      4 C4          2.7024   -0.1253    1.0986 C.ar      1 <0>         0.3654
      5 N1          3.8166   -0.5523    0.5211 N.am      1 <0>        -0.5878
      6 C5          3.9236   -1.7347   -0.0720 C.2       1 <0>         0.5216
      7 O1          4.9756   -2.0659   -0.5830 O.2       1 <0>        -0.4177
      8 C6          2.7361   -2.6697   -0.1114 C.3       1 <0>        -0.1695
      9 C7          1.4539   -2.1952    0.5453 C.2       1 <0>         0.0970
     10 C8          1.4726   -0.9447    1.1287 C.ar      1 <0>        -0.1223
     11 C9          0.2842   -0.4018    1.7864 C.ar      1 <0>         0.0038
     12 C10         0.2394   -3.0344    0.5603 C.2       1 <0>         0.5400
     13 O2         -0.7425   -2.6715    1.1779 O.2       1 <0>        -0.4657
     14 N2          0.2194   -4.2029   -0.1110 N.am      1 <0>        -0.6353
     15 C11        -0.9630   -4.9417   -0.1919 C.ar      1 <0>         0.1106
     16 C12        -2.1875   -4.2876   -0.2770 C.ar      1 <0>        -0.0839
     17 C13        -3.3600   -5.0143   -0.3576 C.ar      1 <0>        -0.1012
     18 C14        -3.3240   -6.3943   -0.3543 C.ar      1 <0>        -0.0787
     19 C15        -2.1004   -7.0607   -0.2693 C.ar      1 <0>        -0.1097
     20 C16        -0.9161   -6.3279   -0.1931 C.ar      1 <0>        -0.0661
     21 C17        -2.0595   -8.5388   -0.2656 C.2       1 <0>         0.5697
     22 O3         -0.9929   -9.1171   -0.1914 O.2       1 <0>        -0.5133
     23 N3         -3.2048   -9.2448   -0.3444 N.am      1 <0>        -0.7008
     24 C18        -3.1643  -10.7092   -0.3407 C.3       1 <0>         0.3585
     25 H1         -2.3783  -11.0804   -0.9984 H         1 <0>         0.1434
     26 N4         -3.0053  -11.2352    1.0305 N.2       1 <0>        -0.5174
     27 C19        -3.7438  -12.1616    1.4481 C.2       1 <0>         0.1784
     28 C20        -4.8044  -12.7283    0.5147 C.3       1 <0>        -0.0825
     29 S1         -4.8061  -11.4231   -0.7943 S.3       1 <0>        -0.3165
     30 H2         -0.5200    1.2382    2.8354 H         1 <0>         0.1687
     31 H3          1.5318    2.5673    2.7616 H         1 <0>         0.1709
     32 H4          3.5461    1.7703    1.7061 H         1 <0>         0.1753
     33 H5          2.5160   -2.8871   -1.1565 H         1 <0>         0.1811
     34 H6          3.0303   -3.6044    0.3659 H         1 <0>         0.1820
     35 H7         -0.6310   -0.9738    1.8270 H         1 <0>         0.2029
     36 H8          1.0263   -4.5308   -0.5380 H         1 <0>         0.4205
     37 H9         -2.2220   -3.2081   -0.2796 H         1 <0>         0.1403
     38 H10        -4.3079   -4.5008   -0.4231 H         1 <0>         0.1439
     39 H11        -4.2428   -6.9584   -0.4172 H         1 <0>         0.1351
     40 H12         0.0338   -6.8380   -0.1316 H         1 <0>         0.1471
     41 H13        -4.0559   -8.7833   -0.4035 H         1 <0>         0.4099
     42 H14        -4.5013  -13.6941    0.1102 H         1 <0>         0.1297
     43 H15        -3.6282  -12.5487    2.4497 H         1 <0>         0.1907
     44 H16        -5.7733  -12.7950    1.0096 H         1 <0>         0.1350
     45 H17         4.5930    0.0291    0.5324 H         1 <0>         0.4434
@<TRIPOS>BOND
     1    1   11 ar
     2    1    2 ar
     3    1   30 1
     4    2    3 ar
     5    2   31 1
     6    3    4 ar
     7    3   32 1
     8    4   10 ar
     9    4    5 2
    10    5    6 am
    11    5   45 1
    12    6    7 2
    13    6    8 1
    14    8    9 1
    15    8   33 1
    16    8   34 1
    17    9   10 2
    18    9   12 1
    19   10   11 ar
    20   11   35 1
    21   12   13 2
    22   12   14 am
    23   14   15 1
    24   14   36 1
    25   15   20 ar
    26   15   16 ar
    27   16   17 ar
    28   16   37 1
    29   17   18 ar
    30   17   38 1
    31   18   19 ar
    32   18   39 1
    33   19   20 ar
    34   19   21 1
    35   20   40 1
    36   21   22 2
    37   21   23 am
    38   23   24 1
    39   23   41 1
    40   24   25 1
    41   24   29 1
    42   24   26 1
    43   26   27 2
    44   27   28 1
    45   27   43 1
    46   28   29 1
    47   28   44 1
    48   28   42 1
@<TRIPOS>MOLECULE
ZINC35740170
   46    48     0     0     0
SMALL
USER_CHARGES

@<TRIPOS>ATOM
      1 C1         -0.2323    0.7661    1.0706 C.3       1 <0>        -0.1558
      2 C2         -0.0807   -0.7308    0.7928 C.3       1 <0>         0.0514
      3 O1          0.5774   -0.9182   -0.4617 O.3       1 <0>        -0.3074
      4 C3          0.7917   -2.2002   -0.8610 C.ar      1 <0>         0.1522
      5 C4          0.3705   -3.2535   -0.0612 C.ar      1 <0>        -0.1904
      6 C5          0.5860   -4.5555   -0.4617 C.ar      1 <0>        -0.0509
      7 C6          1.2291   -4.8133   -1.6746 C.ar      1 <0>         0.0336
      8 C7          1.6508   -3.7500   -2.4763 C.ar      1 <0>        -0.1086
      9 C8          1.4261   -2.4515   -2.0698 C.ar      1 <0>        -0.1285
     10 N1          1.4456   -6.1036   -2.0760 N.2       1 <0>        -0.4955
     11 C9          0.9105   -6.5433   -3.1960 C.2       1 <0>         0.6023
     12 N2          0.1206   -5.7071   -3.9581 N.pl3     1 <0>        -0.6739
     13 C10        -0.9876   -6.2215   -4.6411 C.ar      1 <0>         0.1344
     14 C11        -1.5321   -7.4418   -4.2635 C.ar      1 <0>        -0.1361
     15 C12        -2.6259   -7.9475   -4.9384 C.ar      1 <0>        -0.1040
     16 C13        -3.1801   -7.2388   -5.9913 C.ar      1 <0>         0.1135
     17 C14        -2.6391   -6.0221   -6.3705 C.ar      1 <0>        -0.1009
     18 C15        -1.5481   -5.5092   -5.6944 C.ar      1 <0>        -0.0359
     19 Cl1        -0.8746   -3.9799   -6.1649 Cl        1 <0>        -0.0253
     20 F1         -4.2499   -7.7358   -6.6498 F         1 <0>        -0.1161
     21 N3          1.1361   -7.8193   -3.6008 N.pl3     1 <0>        -0.5254
     22 C16         1.7308   -8.7963   -2.9271 C.cat     1 <0>         0.4842
     23 N4          2.2212   -8.6005   -1.6408 N.pl3     1 <0>        -0.7577
     24 C17         1.8386  -10.0165   -3.5646 C.2       1 <0>        -0.2678
     25 C18         1.3178  -10.0733   -4.8191 C.2       1 <0>        -0.0817
     26 S1          0.7219   -8.5237   -5.0607 S.3       1 <0>         0.5565
     27 C19         1.2795  -11.2473   -5.7631 C.3       1 <0>        -0.1015
     28 H1          0.7530    1.2310    1.1042 H         1 <0>         0.0698
     29 H2         -0.8237    1.2246    0.2781 H         1 <0>         0.0694
     30 H3         -0.7343    0.9090    2.0276 H         1 <0>         0.0844
     31 H4          0.5107   -1.1894    1.5853 H         1 <0>         0.0673
     32 H5         -1.0660   -1.1958    0.7593 H         1 <0>         0.0666
     33 H6         -0.1266   -3.0532    0.8765 H         1 <0>         0.1427
     34 H7          0.2585   -5.3744    0.1616 H         1 <0>         0.1348
     35 H8          2.1484   -3.9446   -3.4149 H         1 <0>         0.1306
     36 H9          1.7479   -1.6287   -2.6910 H         1 <0>         0.1450
     37 H10         0.3332   -4.7627   -4.0204 H         1 <0>         0.4418
     38 H11        -1.1004   -7.9953   -3.4427 H         1 <0>         0.1348
     39 H12        -3.0493   -8.8967   -4.6450 H         1 <0>         0.1602
     40 H13        -3.0726   -5.4713   -7.1921 H         1 <0>         0.1658
     41 H14         2.1327   -7.7336   -1.2148 H         1 <0>         0.4401
     42 H15         2.3066  -10.8702   -3.0971 H         1 <0>         0.2061
     43 H16         0.3626  -11.8141   -5.6011 H         1 <0>         0.1202
     44 H17         1.3073  -10.8875   -6.7917 H         1 <0>         0.1035
     45 H18         2.1409  -11.8895   -5.5795 H         1 <0>         0.1151
     46 H19         2.6518   -9.3308   -1.1696 H         1 <0>         0.4372
@<TRIPOS>BOND
     1    1    2 1
     2    1   28 1
     3    1   29 1
     4    1   30 1
     5    2    3 1
     6    2   31 1
     7    2   32 1
     8    3    4 1
     9    4    9 ar
    10    4    5 ar
    11    5    6 ar
    12    5   33 1
    13    6    7 ar
    14    6   34 1
    15    7    8 ar
    16    7   10 1
    17    8    9 ar
    18    8   35 1
    19    9   36 1
    20   10   11 2
    21   11   12 1
    22   11   21 1
    23   12   13 1
    24   12   37 1
    25   13   18 ar
    26   13   14 ar
    27   14   15 ar
    28   14   38 1
    29   15   16 ar
    30   15   39 1
    31   16   17 ar
    32   16   20 1
    33   17   18 ar
    34   17   40 1
    35   18   19 1
    36   21   26 1
    37   21   22 2
    38   22   23 1
    39   22   24 1
    40   23   41 1
    41   23   46 1
    42   24   25 2
    43   24   42 1
    44   25   26 1
    45   25   27 1
    46   27   43 1
    47   27   44 1
    48   27   45 1
@<TRIPOS>MOLECULE
ZINC67533617
   40    41     0     0     0
SMALL
USER_CHARGES

@<TRIPOS>ATOM
      1 C1         -0.0152    1.3810    0.0423 C.ar      1 <0>        -0.0889
      2 C2          1.0824    1.9556   -0.5723 C.ar      1 <0>        -0.0786
      3 C3          2.2901    1.2849   -0.6007 C.ar      1 <0>        -0.0511
      4 C4          2.4011    0.0308   -0.0101 C.ar      1 <0>         0.1557
      5 C5          1.2971   -0.5430    0.6064 C.ar      1 <0>        -0.0922
      6 C6          0.0919    0.1334    0.6308 C.ar      1 <0>        -0.0678
      7 Br1        -1.4124   -0.6473    1.4697 Br        1 <0>        -0.0260
      8 N1          3.6210   -0.6508   -0.0375 N.am      1 <0>        -0.6361
      9 C7          3.6441   -1.9950    0.0568 C.2       1 <0>         0.5094
     10 O1          2.6042   -2.6209    0.0644 O.2       1 <0>        -0.4898
     11 C8          4.9494   -2.7146    0.1520 C.2       1 <0>         0.5148
     12 O2          5.9892   -2.0888    0.1444 O.2       1 <0>        -0.5049
     13 N2          4.9726   -4.0588    0.2463 N.am      1 <0>        -0.7018
     14 C9          6.2529   -4.7647    0.3396 C.3       1 <0>         0.1176
     15 C10         5.9994   -6.2704    0.4356 C.3       1 <0>        -0.1334
     16 C11         7.3366   -7.0076    0.5331 C.3       1 <0>        -0.1375
     17 C12         7.0830   -8.5134    0.6290 C.3       1 <0>         0.0912
     18 N3          8.3634   -9.2192    0.7224 N.pl3     1 <0>        -0.4086
     19 C13         9.1141   -9.6816   -0.3246 C.2       1 <0>         0.0252
     20 C14        10.2067  -10.2631    0.2063 C.2       1 <0>         0.0042
     21 N4         10.1253  -10.1585    1.5410 N.pl3     1 <0>        -0.4763
     22 C15         9.0262   -9.5299    1.8572 C.cat     1 <0>         0.2880
     23 Cl1         3.6670    2.0065   -1.3734 Cl        1 <0>        -0.0462
     24 H1         -0.9569    1.9092    0.0667 H         1 <0>         0.1493
     25 H2          0.9954    2.9296   -1.0307 H         1 <0>         0.1531
     26 H3          1.3798   -1.5169    1.0657 H         1 <0>         0.1643
     27 H4          4.4510   -0.1563   -0.1243 H         1 <0>         0.4285
     28 H5          4.1415   -4.5590    0.2523 H         1 <0>         0.4167
     29 H6          6.8502   -4.5525   -0.5471 H         1 <0>         0.0788
     30 H7          6.7889   -4.4292    1.2275 H         1 <0>         0.0785
     31 H8          5.4021   -6.4826    1.3223 H         1 <0>         0.0848
     32 H9          5.4634   -6.6059   -0.4523 H         1 <0>         0.0850
     33 H10         7.9339   -6.7955   -0.3537 H         1 <0>         0.0865
     34 H11         7.8725   -6.6721    1.4209 H         1 <0>         0.0845
     35 H12         6.4857   -8.7255    1.5157 H         1 <0>         0.1239
     36 H13         6.5471   -8.8489   -0.2589 H         1 <0>         0.1265
     37 H14         8.8759   -9.5968   -1.3746 H         1 <0>         0.2231
     38 H15        11.0080  -10.7315   -0.3459 H         1 <0>         0.2240
     39 H16         8.6996   -9.2988    2.8603 H         1 <0>         0.2598
     40 H17        10.7816  -10.4939    2.1716 H         1 <0>         0.4657
@<TRIPOS>BOND
     1    1    6 ar
     2    1    2 ar
     3    1   24 1
     4    2    3 ar
     5    2   25 1
     6    3    4 ar
     7    3   23 1
     8    4    5 ar
     9    4    8 1
    10    5    6 ar
    11    5   26 1
    12    6    7 1
    13    8    9 am
    14    8   27 1
    15    9   10 2
    16    9   11 1
    17   11   12 2
    18   11   13 am
    19   13   14 1
    20   13   28 1
    21   14   15 1
    22   14   29 1
    23   14   30 1
    24   15   16 1
    25   15   31 1
    26   15   32 1
    27   16   17 1
    28   16   33 1
    29   16   34 1
    30   17   18 1
    31   17   35 1
    32   17   36 1
    33   18   22 1
    34   18   19 1
    35   19   20 2
    36   19   37 1
    37   20   21 1
    38   20   38 1
    39   21   22 2
    40   21   40 1
    41   22   39 1
@<TRIPOS>MOLECULE
ZINC15062143
   56    59     0     0     0
SMALL
USER_CHARGES
(3R)-3-[[(5-cyclopropyl-1H-pyrazol-3-yl)methyl-methyl-amino]methyl]-1-[(2,3-difluorophenyl)methyl]-3-hydroxy-piperidin-2-one
@<TRIPOS>ATOM
      1 C1         -0.8165   -3.7535    3.2539 C.3       1 <0>        -0.0521
      2 C2         -2.6037   -4.7893    1.9907 C.3       1 <0>         0.0968
      3 C3         -1.6531   -5.5311    1.0867 C.2       1 <0>         0.0113
      4 C4         -0.7435   -6.5163    1.4845 C.2       1 <0>        -0.2566
      5 C5         -0.0783   -6.9376    0.3840 C.2       1 <0>         0.1456
      6 N1         -0.5441   -6.2373   -0.6714 N.pl3     1 <0>        -0.4531
      7 H1         -0.2380   -6.3281   -1.6191 H         1 <0>         0.4538
      8 N2         -1.5322   -5.3607   -0.2049 N.2       1 <0>        -0.2445
      9 C6          0.9948   -7.9949    0.3449 C.3       1 <0>        -0.1134
     10 C7          2.1249   -7.8173   -0.6710 C.3       1 <0>        -0.1664
     11 C8          1.0584   -8.8915   -0.8933 C.3       1 <0>        -0.1649
     12 C9         -2.9726   -2.6640    3.0904 C.3       1 <0>        -0.0170
     13 C10        -2.6054   -1.1946    2.8737 C.3       1 <0>         0.1078
     14 C11        -3.6182   -0.3050    3.5988 C.3       1 <0>        -0.1143
     15 C12        -3.4003    1.1444    3.1481 C.3       1 <0>        -0.1377
     16 C13        -3.7912    1.2630    1.6744 C.3       1 <0>         0.0956
     17 N3         -3.1346    0.2266    0.8875 N.am      1 <0>        -0.5603
     18 C14        -2.6221   -0.8915    1.4027 C.2       1 <0>         0.4830
     19 O1         -2.1395   -1.7048    0.6433 O.2       1 <0>        -0.5306
     20 C15        -3.0366    0.4229   -0.5610 C.3       1 <0>         0.1415
     21 C16        -1.7559    1.1486   -0.8841 C.ar      1 <0>        -0.1287
     22 C17        -1.7750    2.5094   -1.1277 C.ar      1 <0>        -0.0856
     23 C18        -0.6020    3.1755   -1.4289 C.ar      1 <0>        -0.0967
     24 C19         0.5935    2.4833   -1.4829 C.ar      1 <0>        -0.1140
     25 C20         0.6167    1.1222   -1.2349 C.ar      1 <0>         0.0642
     26 C21        -0.5603    0.4538   -0.9322 C.ar      1 <0>         0.0812
     27 F1         -0.5402   -0.8751   -0.6901 F         1 <0>        -0.1115
     28 F2          1.7846    0.4451   -1.2870 F         1 <0>        -0.1258
     29 O2         -1.2984   -0.9498    3.3970 O.3       1 <0>        -0.5176
     30 H2         -1.1364   -4.1415    4.2210 H         1 <0>         0.1260
     31 H3         -0.1596   -4.4772    2.7713 H         1 <0>         0.1236
     32 H4         -0.2803   -2.8156    3.3981 H         1 <0>         0.1160
     33 H5         -2.8160   -5.3960    2.8710 H         1 <0>         0.1455
     34 H6         -3.5318   -4.5883    1.4555 H         1 <0>         0.1354
     35 H7         -0.5990   -6.8783    2.4917 H         1 <0>         0.1591
     36 H8          1.2470   -8.4445    1.3053 H         1 <0>         0.1388
     37 H9          2.0923   -6.9356   -1.3111 H         1 <0>         0.0958
     38 H10         3.1210   -8.1499   -0.3791 H         1 <0>         0.1134
     39 H11         1.3528   -9.9308   -0.7476 H         1 <0>         0.1138
     40 H12         0.3240   -8.7165   -1.6796 H         1 <0>         0.0966
     41 H13        -2.9669   -2.8863    4.1575 H         1 <0>         0.1517
     42 H14        -3.9665   -2.8536    2.6851 H         1 <0>         0.1398
     43 H15        -3.4685   -0.3809    4.6758 H         1 <0>         0.1054
     44 H16        -4.6306   -0.6198    3.3455 H         1 <0>         0.0992
     45 H17        -2.3507    1.4116    3.2707 H         1 <0>         0.0870
     46 H18        -4.0201    1.8129    3.7457 H         1 <0>         0.1060
     47 H19        -3.4933    2.2425    1.3004 H         1 <0>         0.0950
     48 H20        -4.8719    1.1554    1.5817 H         1 <0>         0.0874
     49 H21        -3.8856    1.0131   -0.9059 H         1 <0>         0.1097
     50 H22        -3.0410   -0.5461   -1.0601 H         1 <0>         0.1109
     51 H23        -2.7079    3.0519   -1.0860 H         1 <0>         0.1435
     52 H24        -0.6194    4.2379   -1.6226 H         1 <0>         0.1476
     53 H25         1.5094    3.0049   -1.7184 H         1 <0>         0.1511
     54 H26        -0.5836   -1.3108    2.8549 H         1 <0>         0.3827
     55 N4         -1.9848   -3.5057    2.3830 N.4       1 <0>        -0.4026
     56 H27        -1.6722   -3.0140    1.5376 H         1 <0>         0.4318
@<TRIPOS>BOND
     1    1   30 1
     2    1   31 1
     3    1   32 1
     4    1   55 1
     5    2    3 1
     6    2   33 1
     7    2   34 1
     8    2   55 1
     9    3    8 2
    10    3    4 1
    11    4    5 2
    12    4   35 1
    13    5    6 1
    14    5    9 1
    15    6    7 1
    16    6    8 1
    17    9   11 1
    18    9   10 1
    19    9   36 1
    20   10   11 1
    21   10   37 1
    22   10   38 1
    23   11   39 1
    24   11   40 1
    25   12   13 1
    26   12   41 1
    27   12   42 1
    28   12   55 1
    29   13   18 1
    30   13   14 1
    31   13   29 1
    32   14   15 1
    33   14   43 1
    34   14   44 1
    35   15   16 1
    36   15   45 1
    37   15   46 1
    38   16   17 1
    39   16   47 1
    40   16   48 1
    41   17   18 am
    42   17   20 1
    43   18   19 2
    44   20   21 1
    45   20   49 1
    46   20   50 1
    47   21   26 ar
    48   21   22 ar
    49   22   23 ar
    50   22   51 1
    51   23   24 ar
    52   23   52 1
    53   24   25 ar
    54   24   53 1
    55   25   26 ar
    56   25   28 1
    57   26   27 1
    58   29   54 1
    59   55   56 1
@<TRIPOS>MOLECULE
ZINC39308609
   48    51     0     0     0
SMALL
USER_CHARGES

@<TRIPOS>ATOM
      1 C1         -0.0167    1.3782    0.0096 C.ar      1 <0>        -0.0998
      2 C2          1.1707    2.0857    0.0021 C.ar      1 <0>        -0.0816
      3 C3          2.3778    1.4105   -0.0131 C.ar      1 <0>        -0.0813
      4 C4          2.3961    0.0274   -0.0207 C.ar      1 <0>        -0.0842
      5 C5          1.2082   -0.6793   -0.0132 C.ar      1 <0>        -0.1074
      6 C6          0.0021   -0.0041    0.0020 C.ar      1 <0>        -0.1142
      7 C7         -1.2928   -0.7750    0.0103 C.3       1 <0>         0.1735
      8 C8         -1.7415   -1.0378   -1.4302 C.3       1 <0>        -0.1694
      9 C9         -3.0133   -1.8886   -1.4152 C.3       1 <0>        -0.0026
     10 N1         -2.7440   -3.1660   -0.7443 N.4       1 <0>        -0.3797
     11 C10        -2.3826   -2.9256    0.6579 C.3       1 <0>        -0.0063
     12 C11        -1.0865   -2.1148    0.7228 C.3       1 <0>        -0.1305
     13 C12        -3.9450   -4.0100   -0.8011 C.3       1 <0>         0.0569
     14 C13        -3.6337   -5.3662   -0.2225 C.2       1 <0>         0.1223
     15 C14        -4.2508   -5.7784    0.9196 C.2       1 <0>        -0.2432
     16 C15        -3.9369   -7.0534    1.4339 C.2       1 <0>         0.5197
     17 N2         -3.0376   -7.8132    0.7728 N.am      1 <0>        -0.6193
     18 C16        -2.4621   -7.3469   -0.3528 C.2       1 <0>         0.4676
     19 N3         -2.7567   -6.1677   -0.8319 N.2       1 <0>        -0.5591
     20 C17        -1.4603   -8.2074   -1.0787 C.3       1 <0>        -0.1570
     21 C18        -0.1848   -7.5317   -1.5860 C.3       1 <0>        -0.1357
     22 C19        -1.2697   -7.9593   -2.5764 C.3       1 <0>        -0.1321
     23 O1         -4.4664   -7.4610    2.4544 O.2       1 <0>        -0.5014
     24 O2         -2.2945   -0.0194    0.6941 O.3       1 <0>        -0.5464
     25 Br1         4.0026    2.3779   -0.0240 Br        1 <0>        -0.0297
     26 H1         -0.9592    1.9053    0.0260 H         1 <0>         0.1326
     27 H2          1.1559    3.1656    0.0077 H         1 <0>         0.1407
     28 H3          3.3384   -0.5003   -0.0329 H         1 <0>         0.1397
     29 H4          1.2224   -1.7592   -0.0191 H         1 <0>         0.1325
     30 H5         -1.9440   -0.0891   -1.9271 H         1 <0>         0.1198
     31 H6         -0.9544   -1.5691   -1.9653 H         1 <0>         0.1019
     32 H7         -3.7997   -1.3563   -0.8801 H         1 <0>         0.1381
     33 H8         -3.3356   -2.0774   -2.4392 H         1 <0>         0.1364
     34 H9         -3.1824   -2.3712    1.1489 H         1 <0>         0.1421
     35 H10        -2.2393   -3.8801    1.1644 H         1 <0>         0.1255
     36 H11        -0.2859   -2.6684    0.2323 H         1 <0>         0.1038
     37 H12        -0.8209   -1.9359    1.7646 H         1 <0>         0.1240
     38 H13        -4.7442   -3.5439   -0.2249 H         1 <0>         0.1499
     39 H14        -4.2620   -4.1214   -1.8380 H         1 <0>         0.1528
     40 H15        -4.9650   -5.1420    1.4209 H         1 <0>         0.1680
     41 H16        -1.3791   -9.2350   -0.7244 H         1 <0>         0.1400
     42 H17        -0.0702   -6.4648   -1.3947 H         1 <0>         0.1034
     43 H18         0.7360   -8.1148   -1.5654 H         1 <0>         0.1145
     44 H19        -1.0628   -8.8237   -3.2074 H         1 <0>         0.1135
     45 H20        -1.8689   -7.1737   -3.0367 H         1 <0>         0.1127
     46 H21        -2.8058   -8.6934    1.1080 H         1 <0>         0.4302
     47 H22        -2.4784    0.8419    0.2948 H         1 <0>         0.3913
     48 H23        -1.9827   -3.6359   -1.2109 H         1 <0>         0.4273
@<TRIPOS>BOND
     1    1    6 ar
     2    1    2 ar
     3    1   26 1
     4    2    3 ar
     5    2   27 1
     6    3    4 ar
     7    3   25 1
     8    4    5 ar
     9    4   28 1
    10    5    6 ar
    11    5   29 1
    12    6    7 1
    13    7   12 1
    14    7    8 1
    15    7   24 1
    16    8    9 1
    17    8   30 1
    18    8   31 1
    19    9   10 1
    20    9   32 1
    21    9   33 1
    22   10   11 1
    23   10   13 1
    24   10   48 1
    25   11   12 1
    26   11   34 1
    27   11   35 1
    28   12   36 1
    29   12   37 1
    30   13   38 1
    31   13   39 1
    32   13   14 1
    33   14   15 2
    34   14   19 1
    35   15   16 1
    36   15   40 1
    37   16   23 2
    38   16   17 am
    39   17   18 1
    40   17   46 1
    41   18   19 2
    42   18   20 1
    43   20   22 1
    44   20   21 1
    45   20   41 1
    46   21   22 1
    47   21   42 1
    48   21   43 1
    49   22   44 1
    50   22   45 1
    51   24   47 1
@<TRIPOS>MOLECULE
ZINC39690857
   57    59     0     0     0
SMALL
USER_CHARGES

@<TRIPOS>ATOM
      1 C1         -0.8003   -4.5800    0.3568 C.3       1 <0>        -0.1247
      2 C2         -0.4388   -4.4512   -1.1005 C.2       1 <0>        -0.1471
      3 C3         -0.0055   -5.4952   -1.7627 C.2       1 <0>        -0.1658
      4 C4         -0.5758   -3.1214   -1.7962 C.3       1 <0>         0.1520
      5 N1         -1.9530   -2.9566   -2.2679 N.am      1 <0>        -0.7266
      6 C5         -2.3111   -1.8348   -2.9235 C.2       1 <0>         0.5114
      7 O1         -1.4932   -0.9617   -3.1229 O.2       1 <0>        -0.5087
      8 C6         -3.7277   -1.6653   -3.4087 C.3       1 <0>        -0.1140
      9 H1         -4.4245   -2.1361   -2.7152 H         1 <0>         0.1189
     10 C7         -4.0639   -0.1663   -3.5744 C.3       1 <0>         0.1202
     11 N2         -3.8043    0.1198   -5.0051 N.am      1 <0>        -0.6156
     12 C8         -4.2995   -1.0826   -5.7172 C.3       1 <0>         0.0904
     13 C9         -3.8868   -2.2637   -4.8164 C.3       1 <0>        -0.0737
     14 C10        -2.5622   -2.8518   -5.2933 C.3       1 <0>        -0.1488
     15 C11        -2.7595   -3.4907   -6.6709 C.3       1 <0>        -0.0093
     16 N3         -3.7811   -4.5412   -6.5831 N.4       1 <0>        -0.5050
     17 C12        -5.0741   -3.9530   -6.2135 C.3       1 <0>        -0.0103
     18 C13        -4.9746   -3.3333   -4.8167 C.3       1 <0>        -0.1349
     19 C14        -3.2445    1.2236   -5.5384 C.2       1 <0>         0.5863
     20 O2         -2.7712    2.0765   -4.8125 O.2       1 <0>        -0.5042
     21 C15        -3.2058    1.3972   -7.0037 C.ar      1 <0>        -0.1521
     22 C16        -4.0958    0.6902   -7.8165 C.ar      1 <0>        -0.0715
     23 C17        -4.0568    0.8552   -9.1831 C.ar      1 <0>        -0.1342
     24 C18        -3.1336    1.7233   -9.7541 C.ar      1 <0>         0.1384
     25 C19        -2.2467    2.4284   -8.9490 C.ar      1 <0>        -0.1932
     26 C20        -2.2831    2.2732   -7.5812 C.ar      1 <0>        -0.0121
     27 O3         -3.0978    1.8825  -11.1014 O.3       1 <0>        -0.3087
     28 C21        -2.1244    2.7901  -11.6218 C.3       1 <0>         0.6047
     29 F1         -0.8438    2.3581  -11.2601 F         1 <0>        -0.1618
     30 F2         -2.2255    2.8331  -13.0164 F         1 <0>        -0.1237
     31 F3         -2.3509    4.0675  -11.0982 F         1 <0>        -0.1591
     32 H2          0.0783   -4.3753    0.9685 H         1 <0>         0.0747
     33 H3         -1.5870   -3.8660    0.6005 H         1 <0>         0.0645
     34 H4         -1.1537   -5.5918    0.5554 H         1 <0>         0.0682
     35 H5          0.0927   -6.4482   -1.2641 H         1 <0>         0.1068
     36 H6          0.2536   -5.4028   -2.8071 H         1 <0>         0.0976
     37 H7         -0.3323   -2.3198   -1.0989 H         1 <0>         0.0791
     38 H8          0.1061   -3.0837   -2.6456 H         1 <0>         0.0746
     39 H9         -2.6071   -3.6549   -2.1084 H         1 <0>         0.3991
     40 H10        -5.1112    0.0171   -3.3342 H         1 <0>         0.0898
     41 H11        -3.4162    0.4406   -2.9419 H         1 <0>         0.1045
     42 H12        -5.3840   -1.0444   -5.8196 H         1 <0>         0.0913
     43 H13        -3.8268   -1.1668   -6.6957 H         1 <0>         0.0929
     44 H14        -1.8165   -2.0599   -5.3630 H         1 <0>         0.1220
     45 H15        -2.2246   -3.6092   -4.5859 H         1 <0>         0.0986
     46 H16        -3.0816   -2.7295   -7.3815 H         1 <0>         0.1325
     47 H17        -1.8187   -3.9264   -7.0073 H         1 <0>         0.1392
     48 H18        -3.8658   -5.0016   -7.4770 H         1 <0>         0.4346
     49 H19        -5.3414   -3.1810   -6.9350 H         1 <0>         0.1325
     50 H20        -5.8392   -4.7294   -6.2126 H         1 <0>         0.1413
     51 H21        -4.7236   -4.1078   -4.0920 H         1 <0>         0.0987
     52 H22        -5.9298   -2.8808   -4.5505 H         1 <0>         0.1235
     53 H23        -4.8129    0.0150   -7.3736 H         1 <0>         0.1455
     54 H24        -4.7443    0.3091   -9.8120 H         1 <0>         0.1472
     55 H25        -1.5308    3.1019   -9.3965 H         1 <0>         0.1458
     56 H26        -1.5963    2.8245   -6.9561 H         1 <0>         0.1497
     57 H27        -3.5082   -5.2163   -5.8847 H         1 <0>         0.4287
@<TRIPOS>BOND
     1    1    2 1
     2    1   32 1
     3    1   33 1
     4    1   34 1
     5    2    3 2
     6    2    4 1
     7    3   35 1
     8    3   36 1
     9    4    5 1
    10    4   37 1
    11    4   38 1
    12    5    6 am
    13    5   39 1
    14    6    7 2
    15    6    8 1
    16    8    9 1
    17    8   13 1
    18    8   10 1
    19   10   11 1
    20   10   40 1
    21   10   41 1
    22   11   12 1
    23   11   19 am
    24   12   13 1
    25   12   42 1
    26   12   43 1
    27   13   18 1
    28   13   14 1
    29   14   15 1
    30   14   44 1
    31   14   45 1
    32   15   16 1
    33   15   46 1
    34   15   47 1
    35   16   17 1
    36   16   48 1
    37   16   57 1
    38   17   18 1
    39   17   49 1
    40   17   50 1
    41   18   51 1
    42   18   52 1
    43   19   20 2
    44   19   21 1
    45   21   26 ar
    46   21   22 ar
    47   22   23 ar
    48   22   53 1
    49   23   24 ar
    50   23   54 1
    51   24   25 ar
    52   24   27 1
    53   25   26 ar
    54   25   55 1
    55   26   56 1
    56   27   28 1
    57   28   29 1
    58   28   30 1
    59   28   31 1
@<TRIPOS>MOLECULE
ZINC55063057
   55    56     0     0     0
SMALL
USER_CHARGES

@<TRIPOS>ATOM
      1 C1          0.5351    0.6237    3.5614 C.3       1 <0>        -0.1577
      2 C2          0.5058   -0.8455    3.1351 C.3       1 <0>        -0.1226
      3 C3         -0.9393   -1.3480    3.1359 C.3       1 <0>        -0.1360
      4 C4         -0.9686   -2.8171    2.7096 C.3       1 <0>         0.0707
      5 N1         -2.3523   -3.2983    2.7103 N.pl3     1 <0>        -0.5960
      6 C5         -2.6140   -4.5318    2.3766 C.cat     1 <0>         0.4425
      7 N2         -3.9133   -4.9836    2.3773 N.pl3     1 <0>        -0.8054
      8 S1         -1.3033   -5.6193    1.9250 S.3       1 <0>         0.1761
      9 C6         -2.1405   -7.1849    1.5531 C.3       1 <0>        -0.1992
     10 C7         -1.1196   -8.2165    1.1474 C.2       1 <0>         0.5393
     11 O1          0.0570   -7.9243    1.1126 O.2       1 <0>        -0.5096
     12 N3         -1.5140   -9.4638    0.8232 N.am      1 <0>        -0.5972
     13 C8         -2.9369   -9.8303    0.8550 C.3       1 <0>         0.0852
     14 C9         -3.3298  -10.3892   -0.5182 C.3       1 <0>         0.0801
     15 N4         -2.3448  -11.4071   -0.9102 N.am      1 <0>        -0.6121
     16 C10        -0.9219  -11.0406   -0.9420 C.3       1 <0>         0.0974
     17 C11        -0.5296  -10.4801    0.4257 C.3       1 <0>         0.0975
     18 C12        -2.7392  -12.6544   -1.2344 C.2       1 <0>         0.5670
     19 O2         -1.9240  -13.4678   -1.6234 O.2       1 <0>        -0.5110
     20 C13        -4.1636  -13.0333   -1.1170 C.ar      1 <0>        -0.1100
     21 C14        -5.1502  -12.2416   -1.7073 C.ar      1 <0>        -0.1033
     22 C15        -6.4776  -12.5998   -1.5952 C.ar      1 <0>        -0.0948
     23 C16        -6.8335  -13.7413   -0.8994 C.ar      1 <0>        -0.0920
     24 C17        -5.8602  -14.5320   -0.3103 C.ar      1 <0>         0.1006
     25 C18        -4.5264  -14.1866   -0.4206 C.ar      1 <0>        -0.0996
     26 F1         -6.2149  -15.6449    0.3685 F         1 <0>        -0.1279
     27 C19        -8.2858  -14.1261   -0.7813 C.3       1 <0>        -0.1238
     28 H1          1.5646    0.9817    3.5609 H         1 <0>         0.0657
     29 H2         -0.0561    1.2164    2.8633 H         1 <0>         0.0582
     30 H3          0.1176    0.7196    4.5637 H         1 <0>         0.0582
     31 H4          0.9233   -0.9414    2.1328 H         1 <0>         0.0731
     32 H5          1.0970   -1.4382    3.8332 H         1 <0>         0.0731
     33 H6         -1.3568   -1.2521    4.1382 H         1 <0>         0.0831
     34 H7         -1.5304   -0.7553    2.4378 H         1 <0>         0.0831
     35 H8         -0.5511   -2.9130    1.7073 H         1 <0>         0.1148
     36 H9         -0.3774   -3.4099    3.4077 H         1 <0>         0.1148
     37 H10        -4.6349   -4.3849    2.6259 H         1 <0>         0.4287
     38 H11        -4.1079   -5.9009    2.1292 H         1 <0>         0.4339
     39 H12        -2.6745   -7.5307    2.4382 H         1 <0>         0.1430
     40 H13        -2.8481   -7.0338    0.7378 H         1 <0>         0.1426
     41 H14        -3.1022  -10.5892    1.6197 H         1 <0>         0.0913
     42 H15        -3.5372   -8.9478    1.0761 H         1 <0>         0.0938
     43 H16        -4.3197  -10.8417   -0.4594 H         1 <0>         0.1150
     44 H17        -3.3359   -9.5840   -1.2528 H         1 <0>         0.0813
     45 H18        -0.3217  -11.9231   -1.1631 H         1 <0>         0.1156
     46 H19        -0.7566  -10.2817   -1.7068 H         1 <0>         0.0795
     47 H20         0.4596  -10.0265    0.3635 H         1 <0>         0.1150
     48 H21        -0.5196  -11.2863    1.1593 H         1 <0>         0.0860
     49 H22        -4.8748  -11.3499   -2.2507 H         1 <0>         0.1363
     50 H23        -7.2411  -11.9872   -2.0516 H         1 <0>         0.1426
     51 H24        -3.7674  -14.8054    0.0348 H         1 <0>         0.1449
     52 H25        -8.5604  -14.7693   -1.6173 H         1 <0>         0.0831
     53 H26        -8.4451  -14.6599    0.1556 H         1 <0>         0.0755
     54 H27        -8.9022  -13.2272   -0.7967 H         1 <0>         0.0778
     55 H28        -3.0738   -2.6996    2.9589 H         1 <0>         0.4317
@<TRIPOS>BOND
     1    1    2 1
     2    1   28 1
     3    1   29 1
     4    1   30 1
     5    2    3 1
     6    2   31 1
     7    2   32 1
     8    3    4 1
     9    3   33 1
    10    3   34 1
    11    4    5 1
    12    4   35 1
    13    4   36 1
    14    5    6 2
    15    5   55 1
    16    6    7 1
    17    6    8 1
    18    7   37 1
    19    7   38 1
    20    8    9 1
    21    9   10 1
    22    9   39 1
    23    9   40 1
    24   10   11 2
    25   10   12 am
    26   12   17 1
    27   12   13 1
    28   13   14 1
    29   13   41 1
    30   13   42 1
    31   14   15 1
    32   14   43 1
    33   14   44 1
    34   15   16 1
    35   15   18 am
    36   16   17 1
    37   16   45 1
    38   16   46 1
    39   17   47 1
    40   17   48 1
    41   18   19 2
    42   18   20 1
    43   20   25 ar
    44   20   21 ar
    45   21   22 ar
    46   21   49 1
    47   22   23 ar
    48   22   50 1
    49   23   24 ar
    50   23   27 1
    51   24   25 ar
    52   24   26 1
    53   25   51 1
    54   27   52 1
    55   27   53 1
    56   27   54 1
@<TRIPOS>MOLECULE
ZINC67525157
   56    58     0     0     0
SMALL
USER_CHARGES

@<TRIPOS>ATOM
      1 C1         -2.1109    1.3504   -1.8462 C.3       1 <0>        -0.1542
      2 C2         -1.5707    0.0100   -1.3439 C.3       1 <0>         0.0538
      3 O1         -0.4116   -0.3493   -2.0985 O.3       1 <0>        -0.3166
      4 C3          0.1956   -1.5229   -1.7763 C.ar      1 <0>         0.1072
      5 C4         -0.3167   -2.3133   -0.7606 C.ar      1 <0>        -0.1583
      6 C5          0.3004   -3.5064   -0.4337 C.ar      1 <0>        -0.1160
      7 C6          1.4319   -3.9155   -1.1198 C.ar      1 <0>         0.0859
      8 C7          1.9495   -3.1316   -2.1354 C.ar      1 <0>        -0.1277
      9 C8          1.3308   -1.9353   -2.4713 C.ar      1 <0>         0.1297
     10 N1          1.8485   -1.1434   -3.5015 N.am      1 <0>        -0.6190
     11 C9          2.5933   -1.7053   -4.4741 C.2       1 <0>         0.5054
     12 O2          2.7332   -2.9105   -4.5118 O.2       1 <0>        -0.4993
     13 C10         3.2465   -0.8452   -5.5055 C.2       1 <0>         0.5214
     14 O3          3.1066    0.3597   -5.4678 O.2       1 <0>        -0.4833
     15 N2          3.9914   -1.4071   -6.4781 N.am      1 <0>        -0.7274
     16 C11         4.6322   -0.5633   -7.4898 C.3       1 <0>         0.0930
     17 C12         5.3045   -1.4488   -8.5409 C.3       1 <0>         0.0156
     18 H1          6.1166   -2.0095   -8.0780 H         1 <0>         0.1524
     19 C13         5.8646   -0.5726   -9.6632 C.3       1 <0>        -0.1830
     20 N3          4.3178   -2.3847   -9.0964 N.4       1 <0>        -0.3856
     21 C14         4.9855   -3.3105  -10.0241 C.3       1 <0>        -0.0057
     22 C15         4.0229   -4.4532  -10.3499 C.3       1 <0>        -0.1061
     23 C16         2.6924   -3.8916  -10.7821 C.ar      1 <0>        -0.0915
     24 C17         1.8027   -4.7236  -11.4436 C.ar      1 <0>        -0.1037
     25 C18         0.5737   -4.2454  -11.8517 C.ar      1 <0>        -0.0915
     26 C19         0.2289   -2.9305  -11.5990 C.ar      1 <0>        -0.1041
     27 C20         1.1148   -2.1010  -10.9416 C.ar      1 <0>        -0.0930
     28 C21         2.3508   -2.5795  -10.5323 C.ar      1 <0>        -0.1329
     29 C22         3.2894   -1.6373   -9.8258 C.3       1 <0>         0.0361
     30 F1          2.0316   -5.0821   -0.7962 F         1 <0>        -0.1317
     31 H2         -1.3466    2.1182   -1.7258 H         1 <0>         0.0684
     32 H3         -2.3759    1.2635   -2.8999 H         1 <0>         0.0667
     33 H4         -2.9950    1.6245   -1.2706 H         1 <0>         0.0842
     34 H5         -1.3057    0.0969   -0.2902 H         1 <0>         0.0687
     35 H6         -2.3349   -0.7578   -1.4642 H         1 <0>         0.0676
     36 H7         -1.1987   -1.9971   -0.2234 H         1 <0>         0.1486
     37 H8         -0.1005   -4.1208    0.3588 H         1 <0>         0.1464
     38 H9          2.8318   -3.4521   -2.6693 H         1 <0>         0.1636
     39 H10         1.6714   -0.1898   -3.5160 H         1 <0>         0.4318
     40 H11         4.1031   -2.3702   -6.5082 H         1 <0>         0.4092
     41 H12         3.8803    0.0631   -7.9697 H         1 <0>         0.1044
     42 H13         5.3818    0.0688   -7.0139 H         1 <0>         0.1225
     43 H14         5.0704    0.0582  -10.0623 H         1 <0>         0.0888
     44 H15         6.6640    0.0551   -9.2694 H         1 <0>         0.1137
     45 H16         6.2585   -1.2070  -10.4572 H         1 <0>         0.0918
     46 H17         5.2505   -2.7828  -10.9402 H         1 <0>         0.1369
     47 H18         5.8848   -3.7117   -9.5567 H         1 <0>         0.1398
     48 H19         4.4390   -5.0593  -11.1546 H         1 <0>         0.1258
     49 H20         3.8840   -5.0737   -9.4646 H         1 <0>         0.1044
     50 H21         2.0724   -5.7506  -11.6409 H         1 <0>         0.1356
     51 H22        -0.1166   -4.8965  -12.3674 H         1 <0>         0.1372
     52 H23        -0.7321   -2.5529  -11.9158 H         1 <0>         0.1376
     53 H24         0.8444   -1.0741  -10.7450 H         1 <0>         0.1337
     54 H25         2.7233   -1.0259   -9.1231 H         1 <0>         0.1359
     55 H26         3.7686   -0.9896  -10.5599 H         1 <0>         0.1454
     56 H27         3.8884   -2.9066   -8.3472 H         1 <0>         0.4214
@<TRIPOS>BOND
     1    1    2 1
     2    1   31 1
     3    1   32 1
     4    1   33 1
     5    2    3 1
     6    2   34 1
     7    2   35 1
     8    3    4 1
     9    4    9 ar
    10    4    5 ar
    11    5    6 ar
    12    5   36 1
    13    6    7 ar
    14    6   37 1
    15    7    8 ar
    16    7   30 1
    17    8    9 ar
    18    8   38 1
    19    9   10 1
    20   10   11 am
    21   10   39 1
    22   11   12 2
    23   11   13 1
    24   13   14 2
    25   13   15 am
    26   15   16 1
    27   15   40 1
    28   16   17 1
    29   16   41 1
    30   16   42 1
    31   17   18 1
    32   17   19 1
    33   17   20 1
    34   19   43 1
    35   19   44 1
    36   19   45 1
    37   20   29 1
    38   20   21 1
    39   20   56 1
    40   21   22 1
    41   21   46 1
    42   21   47 1
    43   22   23 1
    44   22   48 1
    45   22   49 1
    46   23   28 ar
    47   23   24 ar
    48   24   25 ar
    49   24   50 1
    50   25   26 ar
    51   25   51 1
    52   26   27 ar
    53   26   52 1
    54   27   28 ar
    55   27   53 1
    56   28   29 1
    57   29   54 1
    58   29   55 1
@<TRIPOS>MOLECULE
ZINC19375384
   57    61     0     0     0
SMALL
USER_CHARGES
[4-(3,4-dihydro-1H-isoquinolin-2-ylmethyl)-4-hydroxy-1-piperidyl]-(5-fluoro-1H-indol-2-yl)methanone
@<TRIPOS>ATOM
      1 C1          5.9862   12.5477   -0.6886 C.ar      1 <0>        -0.0957
      2 C2          5.1291   12.1355   -1.6921 C.ar      1 <0>        -0.1051
      3 C3          3.8101   11.8558   -1.3976 C.ar      1 <0>        -0.0945
      4 C4          3.3385   11.9854   -0.0993 C.ar      1 <0>        -0.1305
      5 C5          4.1940   12.3937    0.9012 C.ar      1 <0>        -0.0958
      6 C6          5.5188   12.6764    0.6038 C.ar      1 <0>        -0.1051
      7 C7          3.7296   12.5437    2.3271 C.3       1 <0>        -0.1062
      8 C8          2.2024   12.5963    2.3760 C.3       1 <0>        -0.0029
      9 N1          1.6708   11.4604    1.6060 N.4       1 <0>        -0.3974
     10 C9          1.8901   11.6728    0.1717 C.3       1 <0>         0.0464
     11 C10         0.2462   11.2490    1.8950 C.3       1 <0>         0.0090
     12 C11        -0.2883   10.1122    1.0216 C.3       1 <0>         0.1285
     13 C12        -1.7205    9.7756    1.4430 C.3       1 <0>        -0.1552
     14 C13        -2.2643    8.6606    0.5441 C.3       1 <0>         0.0817
     15 N2         -1.3379    7.5212    0.5910 N.am      1 <0>        -0.6206
     16 C14         0.0828    7.7533    0.2968 C.3       1 <0>         0.1109
     17 C15         0.5993    8.8773    1.1931 C.3       1 <0>        -0.1819
     18 C16        -1.7818    6.2876    0.9034 C.2       1 <0>         0.5936
     19 O1         -0.9885    5.3832    1.0837 O.2       1 <0>        -0.5022
     20 C17        -3.2253    6.0349    1.0262 C.2       1 <0>         0.0011
     21 C18        -3.7964    5.1091    1.8404 C.2       1 <0>        -0.1001
     22 C19        -5.1990    5.1848    1.6627 C.ar      1 <0>        -0.0971
     23 C20        -6.2789    4.4928    2.2271 C.ar      1 <0>        -0.0974
     24 C21        -7.5545    4.7943    1.8422 C.ar      1 <0>         0.0783
     25 C22        -7.7927    5.7908    0.9010 C.ar      1 <0>        -0.1128
     26 C23        -6.7475    6.4867    0.3368 C.ar      1 <0>        -0.1031
     27 C24        -5.4386    6.1934    0.7095 C.ar      1 <0>         0.1155
     28 N3         -4.2168    6.7013    0.3327 N.pl3     1 <0>        -0.5906
     29 H1         -3.9505    7.4943   -0.3816 H         1 <0>         0.4426
     30 F1         -8.5940    4.1228    2.3842 F         1 <0>        -0.1363
     31 O2         -0.2782   10.5192   -0.3482 O.3       1 <0>        -0.5836
     32 H2          7.0189   12.7681   -0.9152 H         1 <0>         0.1355
     33 H3          5.4909   12.0330   -2.7045 H         1 <0>         0.1360
     34 H4          3.1413   11.5339   -2.1821 H         1 <0>         0.1329
     35 H5          6.1884   12.9982    1.3877 H         1 <0>         0.1333
     36 H6          4.0816   11.6863    2.9195 H         1 <0>         0.1028
     37 H7          4.1377   13.4736    2.7498 H         1 <0>         0.1233
     38 H8          1.8666   12.5310    3.4214 H         1 <0>         0.1364
     39 H9          1.8539   13.5430    1.9374 H         1 <0>         0.1309
     40 H10         1.2645   12.5126   -0.1651 H         1 <0>         0.1339
     41 H11         1.6037   10.7609   -0.3727 H         1 <0>         0.1604
     42 H12         0.1224   10.9856    2.9558 H         1 <0>         0.1457
     43 H13        -0.3127   12.1714    1.6786 H         1 <0>         0.1385
     44 H14        -1.7251    9.4393    2.4903 H         1 <0>         0.0908
     45 H15        -2.3522   10.6705    1.3425 H         1 <0>         0.1002
     46 H16        -3.2561    8.3500    0.9045 H         1 <0>         0.1111
     47 H17        -2.3487    9.0304   -0.4884 H         1 <0>         0.0817
     48 H18         0.6526    6.8326    0.4909 H         1 <0>         0.1123
     49 H19         0.1966    8.0391   -0.7593 H         1 <0>         0.0787
     50 H20         1.6329    9.1266    0.9111 H         1 <0>         0.0807
     51 H21         0.5744    8.5508    2.2432 H         1 <0>         0.0966
     52 H22        -3.2740    4.4361    2.5042 H         1 <0>         0.1566
     53 H23        -6.1030    3.7206    2.9614 H         1 <0>         0.1417
     54 H24        -8.8071    6.0203    0.6100 H         1 <0>         0.1450
     55 H25        -6.9424    7.2581   -0.3936 H         1 <0>         0.1353
     56 H26        -0.6297    9.8293   -1.1296 H         1 <0>         0.4274
     57 H27         2.2102   10.5501    1.9065 H         1 <0>         0.4386
@<TRIPOS>BOND
     1    1    6 ar
     2    1    2 ar
     3    1   32 1
     4    2    3 ar
     5    2   33 1
     6    3    4 ar
     7    3   34 1
     8    4   10 1
     9    4    5 ar
    10    5    6 ar
    11    5    7 1
    12    6   35 1
    13    7    8 1
    14    7   36 1
    15    7   37 1
    16    8    9 1
    17    8   38 1
    18    8   39 1
    19    9   10 1
    20    9   11 1
    21    9   57 1
    22   10   40 1
    23   10   41 1
    24   11   12 1
    25   11   42 1
    26   11   43 1
    27   12   17 1
    28   12   13 1
    29   12   31 1
    30   13   14 1
    31   13   44 1
    32   13   45 1
    33   14   15 1
    34   14   46 1
    35   14   47 1
    36   15   16 1
    37   15   18 am
    38   16   17 1
    39   16   48 1
    40   16   49 1
    41   17   50 1
    42   17   51 1
    43   18   19 2
    44   18   20 1
    45   20   28 1
    46   20   21 2
    47   21   22 1
    48   21   52 1
    49   22   27 ar
    50   22   23 ar
    51   23   24 ar
    52   23   53 1
    53   24   25 ar
    54   24   30 1
    55   25   26 ar
    56   25   54 1
    57   26   27 ar
    58   26   55 1
    59   27   28 1
    60   28   29 1
    61   31   56 1
@<TRIPOS>MOLECULE
ZINC39604450
   62    64     0     0     0
SMALL
USER_CHARGES

@<TRIPOS>ATOM
      1 C1         -4.9830   -5.1672    0.5920 C.3       1 <0>        -0.1537
      2 C2         -3.4610   -5.0755    0.7176 C.3       1 <0>         0.0579
      3 O1         -2.8619   -5.3275   -0.5550 O.3       1 <0>        -0.3909
      4 C3         -1.4342   -5.2656   -0.5478 C.3       1 <0>         0.0638
      5 C4         -0.9044   -5.5499   -1.9547 C.3       1 <0>        -0.1295
      6 C5          0.6242   -5.4836   -1.9471 C.3       1 <0>         0.1194
      7 N1          1.1315   -5.7557   -3.2942 N.am      1 <0>        -0.7287
      8 C6          2.4588   -5.7506   -3.5282 C.2       1 <0>         0.5143
      9 O2          3.2332   -5.5207   -2.6236 O.2       1 <0>        -0.5125
     10 C7          2.9807   -6.0306   -4.9140 C.3       1 <0>        -0.1155
     11 H1          2.2519   -5.7209   -5.6629 H         1 <0>         0.1188
     12 C8          4.3256   -5.3041   -5.1393 C.3       1 <0>         0.1030
     13 N2          5.3573   -6.3175   -4.8160 N.am      1 <0>        -0.6136
     14 C9          4.8188   -7.5821   -5.3718 C.3       1 <0>         0.1091
     15 C10         3.3079   -7.5251   -5.0711 C.3       1 <0>        -0.0731
     16 C11         2.5156   -8.1204   -6.2310 C.3       1 <0>        -0.1340
     17 C12         2.8131   -9.6192   -6.3306 C.3       1 <0>        -0.0100
     18 N3          2.4452  -10.2778   -5.0713 N.4       1 <0>        -0.5046
     19 C13         3.2775   -9.7649   -3.9763 C.3       1 <0>        -0.0090
     20 C14         2.9996   -8.2723   -3.7772 C.3       1 <0>        -0.1466
     21 C15         6.5223   -6.1316   -4.1643 C.2       1 <0>         0.5969
     22 O3          7.3133   -7.0486   -4.0597 O.2       1 <0>        -0.5176
     23 C16         6.8382   -4.8121   -3.5766 C.ar      1 <0>        -0.1058
     24 C17         6.4384   -3.6426   -4.2249 C.ar      1 <0>        -0.1268
     25 C18         6.7365   -2.4129   -3.6698 C.ar      1 <0>         0.0900
     26 C19         7.4307   -2.3409   -2.4724 C.ar      1 <0>        -0.1196
     27 C20         7.8288   -3.4974   -1.8268 C.ar      1 <0>        -0.0939
     28 C21         7.5323   -4.7313   -2.3686 C.ar      1 <0>        -0.0339
     29 C22         7.9619   -5.9898   -1.6596 C.3       1 <0>        -0.1132
     30 F1          6.3511   -1.2791   -4.2953 F         1 <0>        -0.1333
     31 H2         -5.3335   -4.4272   -0.1275 H         1 <0>         0.0643
     32 H3         -5.2600   -6.1649    0.2512 H         1 <0>         0.0629
     33 H4         -5.4400   -4.9750    1.5627 H         1 <0>         0.0751
     34 H5         -3.1840   -4.0778    1.0584 H         1 <0>         0.0516
     35 H6         -3.1105   -5.8155    1.4371 H         1 <0>         0.0501
     36 H7         -1.1152   -4.2719   -0.2334 H         1 <0>         0.0546
     37 H8         -1.0418   -6.0096    0.1454 H         1 <0>         0.0519
     38 H9         -1.2234   -6.5436   -2.2692 H         1 <0>         0.0758
     39 H10        -1.2969   -4.8059   -2.6480 H         1 <0>         0.0810
     40 H11         0.9432   -4.4899   -1.6326 H         1 <0>         0.0756
     41 H12         1.0166   -6.2275   -1.2538 H         1 <0>         0.0721
     42 H13         0.5122   -5.9396   -4.0177 H         1 <0>         0.4010
     43 H14         4.4168   -4.9869   -6.1781 H         1 <0>         0.0932
     44 H15         4.4115   -4.4476   -4.4706 H         1 <0>         0.1065
     45 H16         4.9902   -7.6284   -6.4473 H         1 <0>         0.0869
     46 H17         5.2735   -8.4397   -4.8759 H         1 <0>         0.0894
     47 H18         1.4497   -7.9718   -6.0579 H         1 <0>         0.0982
     48 H19         2.8058   -7.6294   -7.1599 H         1 <0>         0.1226
     49 H20         2.2355  -10.0505   -7.1481 H         1 <0>         0.1406
     50 H21         3.8763   -9.7665   -6.5202 H         1 <0>         0.1332
     51 H22         1.4741  -10.0939   -4.8684 H         1 <0>         0.4277
     52 H23         3.0423  -10.3037   -3.0585 H         1 <0>         0.1385
     53 H24         4.3297   -9.9087   -4.2220 H         1 <0>         0.1344
     54 H25         3.6310   -7.8884   -2.9760 H         1 <0>         0.1231
     55 H26         1.9512   -8.1292   -3.5153 H         1 <0>         0.0956
     56 H27         5.8977   -3.6986   -5.1581 H         1 <0>         0.1403
     57 H28         7.6622   -1.3778   -2.0420 H         1 <0>         0.1448
     58 H29         8.3695   -3.4346   -0.8940 H         1 <0>         0.1443
     59 H30         8.9159   -6.3274   -2.0646 H         1 <0>         0.0842
     60 H31         8.0708   -5.7874   -0.5941 H         1 <0>         0.0696
     61 H32         7.2098   -6.7648   -1.8071 H         1 <0>         0.0690
     62 H33         2.5849  -11.2731   -5.1605 H         1 <0>         0.4345
@<TRIPOS>BOND
     1    1    2 1
     2    1   31 1
     3    1   32 1
     4    1   33 1
     5    2    3 1
     6    2   34 1
     7    2   35 1
     8    3    4 1
     9    4    5 1
    10    4   36 1
    11    4   37 1
    12    5    6 1
    13    5   38 1
    14    5   39 1
    15    6    7 1
    16    6   40 1
    17    6   41 1
    18    7    8 am
    19    7   42 1
    20    8    9 2
    21    8   10 1
    22   10   11 1
    23   10   15 1
    24   10   12 1
    25   12   13 1
    26   12   43 1
    27   12   44 1
    28   13   14 1
    29   13   21 am
    30   14   15 1
    31   14   45 1
    32   14   46 1
    33   15   20 1
    34   15   16 1
    35   16   17 1
    36   16   47 1
    37   16   48 1
    38   17   18 1
    39   17   49 1
    40   17   50 1
    41   18   19 1
    42   18   51 1
    43   18   62 1
    44   19   20 1
    45   19   52 1
    46   19   53 1
    47   20   54 1
    48   20   55 1
    49   21   22 2
    50   21   23 1
    51   23   28 ar
    52   23   24 ar
    53   24   25 ar
    54   24   56 1
    55   25   26 ar
    56   25   30 1
    57   26   27 ar
    58   26   57 1
    59   27   28 ar
    60   27   58 1
    61   28   29 1
    62   29   59 1
    63   29   60 1
    64   29   61 1
@<TRIPOS>MOLECULE
ZINC39673554
   58    60     0     0     0
SMALL
USER_CHARGES

@<TRIPOS>ATOM
      1 C1          1.1494   -3.8110    3.7527 C.3       1 <0>        -0.1591
      2 C2          0.2379   -4.0154    2.5409 C.3       1 <0>        -0.1181
      3 C3         -0.3613   -2.6716    2.1211 C.3       1 <0>        -0.1334
      4 C4         -1.2727   -2.8759    0.9093 C.3       1 <0>         0.1408
      5 H1         -2.0223   -3.6323    1.1419 H         1 <0>         0.0920
      6 C5         -1.9684   -1.5571    0.5663 C.3       1 <0>        -0.1693
      7 N1         -0.4719   -3.3177   -0.2351 N.am      1 <0>        -0.7211
      8 C6         -1.0467   -4.0279   -1.2259 C.2       1 <0>         0.5203
      9 O1         -2.2270   -4.3014   -1.1700 O.2       1 <0>        -0.5200
     10 C7         -0.2229   -4.4823   -2.4031 C.3       1 <0>        -0.1143
     11 H2          0.6012   -3.7908   -2.5783 H         1 <0>         0.1125
     12 C8         -1.1063   -4.5973   -3.6656 C.3       1 <0>         0.1167
     13 N2         -0.5888   -5.7897   -4.3773 N.am      1 <0>        -0.6172
     14 C9         -0.2862   -6.7605   -3.2984 C.3       1 <0>         0.0894
     15 C10         0.3127   -5.9042   -2.1650 C.3       1 <0>        -0.0717
     16 C11        -0.1538   -6.4244   -0.8087 C.3       1 <0>        -0.1495
     17 C12         0.4391   -7.8157   -0.5692 C.3       1 <0>        -0.0087
     18 N3          1.9045   -7.7387   -0.6087 N.4       1 <0>        -0.5050
     19 C13         2.3484   -7.3270   -1.9459 C.3       1 <0>        -0.0119
     20 C14         1.8363   -5.9149   -2.2436 C.3       1 <0>        -0.1358
     21 C15        -0.4289   -5.9542   -5.7054 C.2       1 <0>         0.5850
     22 O2         -0.6193   -5.0211   -6.4607 O.2       1 <0>        -0.5011
     23 C16        -0.0220   -7.2699   -6.2436 C.ar      1 <0>        -0.0741
     24 C17        -0.2308   -8.4282   -5.4939 C.ar      1 <0>        -0.1576
     25 C18         0.1516   -9.6553   -6.0018 C.ar      1 <0>         0.1281
     26 C19         0.7411   -9.7367   -7.2528 C.ar      1 <0>        -0.1646
     27 C20         0.9507   -8.5901   -8.0014 C.ar      1 <0>         0.1399
     28 C21         0.5670   -7.3584   -7.5056 C.ar      1 <0>        -0.1045
     29 F1          1.5261   -8.6767   -9.2206 F         1 <0>        -0.1163
     30 F2         -0.0496  -10.7774   -5.2769 F         1 <0>        -0.1244
     31 H3          1.5762   -4.7684    4.0518 H         1 <0>         0.0538
     32 H4          1.9518   -3.1211    3.4916 H         1 <0>         0.0564
     33 H5          0.5694   -3.3981    4.5780 H         1 <0>         0.0606
     34 H6          0.8179   -4.4283    1.7156 H         1 <0>         0.0501
     35 H7         -0.5645   -4.7053    2.8021 H         1 <0>         0.0632
     36 H8         -0.9412   -2.2587    2.9464 H         1 <0>         0.0860
     37 H9          0.4412   -1.9817    1.8600 H         1 <0>         0.0716
     38 H10        -2.6177   -1.7027   -0.2970 H         1 <0>         0.0631
     39 H11        -2.5642   -1.2284    1.4178 H         1 <0>         0.0712
     40 H12        -1.2188   -0.8007    0.3337 H         1 <0>         0.0596
     41 H13         0.4721   -3.0990   -0.2798 H         1 <0>         0.3990
     42 H14        -2.1499   -4.7441   -3.3871 H         1 <0>         0.1024
     43 H15        -0.9993   -3.7079   -4.2866 H         1 <0>         0.1000
     44 H16        -1.1989   -7.2530   -2.9628 H         1 <0>         0.0934
     45 H17         0.4402   -7.4969   -3.6420 H         1 <0>         0.0944
     46 H18         0.1813   -5.7461   -0.0240 H         1 <0>         0.0997
     47 H19        -1.2420   -6.4857   -0.7972 H         1 <0>         0.1282
     48 H20         0.1210   -8.1829    0.4065 H         1 <0>         0.1409
     49 H21         0.0904   -8.4975   -1.3449 H         1 <0>         0.1328
     50 H22         2.2230   -7.0656    0.0721 H         1 <0>         0.4285
     51 H23         3.4376   -7.3340   -1.9850 H         1 <0>         0.1415
     52 H24         1.9541   -8.0203   -2.6888 H         1 <0>         0.1314
     53 H25         2.1511   -5.6170   -3.2437 H         1 <0>         0.1194
     54 H26         2.2433   -5.2182   -1.5107 H         1 <0>         0.0990
     55 H27        -0.6900   -8.3657   -4.5183 H         1 <0>         0.1521
     56 H28         1.0386  -10.6977   -7.6458 H         1 <0>         0.1598
     57 H29         0.7265   -6.4656   -8.0920 H         1 <0>         0.1600
     58 H30         2.2935   -8.6438   -0.3904 H         1 <0>         0.4349
@<TRIPOS>BOND
     1    1    2 1
     2    1   31 1
     3    1   32 1
     4    1   33 1
     5    2    3 1
     6    2   34 1
     7    2   35 1
     8    3    4 1
     9    3   36 1
    10    3   37 1
    11    4    5 1
    12    4    6 1
    13    4    7 1
    14    6   38 1
    15    6   39 1
    16    6   40 1
    17    7    8 am
    18    7   41 1
    19    8    9 2
    20    8   10 1
    21   10   11 1
    22   10   15 1
    23   10   12 1
    24   12   13 1
    25   12   42 1
    26   12   43 1
    27   13   14 1
    28   13   21 am
    29   14   15 1
    30   14   44 1
    31   14   45 1
    32   15   20 1
    33   15   16 1
    34   16   17 1
    35   16   46 1
    36   16   47 1
    37   17   18 1
    38   17   48 1
    39   17   49 1
    40   18   19 1
    41   18   50 1
    42   18   58 1
    43   19   20 1
    44   19   51 1
    45   19   52 1
    46   20   53 1
    47   20   54 1
    48   21   22 2
    49   21   23 1
    50   23   28 ar
    51   23   24 ar
    52   24   25 ar
    53   24   55 1
    54   25   26 ar
    55   25   30 1
    56   26   27 ar
    57   26   56 1
    58   27   28 ar
    59   27   29 1
    60   28   57 1
@<TRIPOS>MOLECULE
ZINC40355869
   48    50     0     0     0
SMALL
USER_CHARGES

@<TRIPOS>ATOM
      1 C1         -0.0167    1.3778    0.0096 C.ar      1 <0>        -0.0959
      2 C2          1.1840    2.0894    0.0020 C.ar      1 <0>        -0.0807
      3 C3          2.3976    1.4002   -0.0133 C.ar      1 <0>        -0.1324
      4 C4          2.4043    0.0182   -0.0208 C.ar      1 <0>         0.1335
      5 C5          1.2096   -0.6829   -0.0132 C.ar      1 <0>        -0.1556
      6 C6          0.0021   -0.0041    0.0020 C.ar      1 <0>         0.1364
      7 F1         -1.1593   -0.6942    0.0094 F         1 <0>        -0.1162
      8 F2          3.5783   -0.6502   -0.0360 F         1 <0>        -0.1203
      9 C7          1.1703    3.5674    0.0096 C.2       1 <0>         0.5706
     10 O1          0.1121    4.1653    0.0225 O.2       1 <0>        -0.4803
     11 N1          2.3312    4.2520    0.0021 N.am      1 <0>        -0.6034
     12 C8          2.3184    5.6399    0.0093 C.2       1 <0>         0.2679
     13 N2          3.3335    6.4798   -0.0014 N.2       1 <0>        -0.5041
     14 C9          3.0725    7.7902    0.0082 C.2       1 <0>        -0.0126
     15 C10         1.7705    8.2051    0.0286 C.2       1 <0>        -0.2322
     16 S1          0.9232    6.7512    0.0273 S.3       1 <0>         0.2987
     17 C11         4.1699    8.7713   -0.0025 C.2       1 <0>         0.6067
     18 O2          3.9213    9.9620    0.0068 O.2       1 <0>        -0.5207
     19 N3          5.4500    8.3503   -0.0227 N.am      1 <0>        -0.7205
     20 C12         6.5422    9.3267   -0.0334 C.3       1 <0>         0.0957
     21 C13         7.8836    8.5912   -0.0560 C.3       1 <0>        -0.0213
     22 N4          8.9787    9.5703   -0.0667 N.4       1 <0>        -0.3787
     23 C14         8.9293   10.3437   -1.3132 C.3       1 <0>        -0.0154
     24 C15        10.0178   11.4191   -1.2940 C.3       1 <0>        -0.1457
     25 C16        11.3881   10.7484   -1.1616 C.3       1 <0>        -0.1398
     26 C17        11.4028    9.8852    0.1033 C.3       1 <0>        -0.1463
     27 C18        10.2631    8.8666    0.0324 C.3       1 <0>        -0.0058
     28 H1         -0.9585    1.9060    0.0259 H         1 <0>         0.1640
     29 H2          3.3296    1.9458   -0.0196 H         1 <0>         0.1472
     30 H3          1.2196   -1.7629   -0.0194 H         1 <0>         0.1618
     31 H4          3.1757    3.7749   -0.0082 H         1 <0>         0.4276
     32 H5          1.3828    9.2130    0.0390 H         1 <0>         0.2125
     33 H6          5.6483    7.4008   -0.0302 H         1 <0>         0.4165
     34 H7          6.4580    9.9562   -0.9192 H         1 <0>         0.0905
     35 H8          6.4832    9.9475    0.8606 H         1 <0>         0.0905
     36 H9          7.9677    7.9616    0.8298 H         1 <0>         0.1391
     37 H10         7.9425    7.9703   -0.9499 H         1 <0>         0.1374
     38 H11         9.0923    9.6775   -2.1603 H         1 <0>         0.1307
     39 H12         7.9524   10.8178   -1.4076 H         1 <0>         0.1330
     40 H13         9.9806   11.9911   -2.2211 H         1 <0>         0.1134
     41 H14         9.8556   12.0861   -0.4473 H         1 <0>         0.0890
     42 H15        11.5725   10.1207   -2.0334 H         1 <0>         0.0821
     43 H16        12.1624   11.5123   -1.0906 H         1 <0>         0.0951
     44 H17        12.3557    9.3608    0.1750 H         1 <0>         0.1134
     45 H18        11.2694   10.5203    0.9790 H         1 <0>         0.0886
     46 H19        10.2708    8.2502    0.9313 H         1 <0>         0.1314
     47 H20        10.3976    8.2319   -0.8435 H         1 <0>         0.1297
     48 H21         8.8773   10.1953    0.7189 H         1 <0>         0.4251
@<TRIPOS>BOND
     1    1    6 ar
     2    1    2 ar
     3    1   28 1
     4    2    3 ar
     5    2    9 1
     6    3    4 ar
     7    3   29 1
     8    4    5 ar
     9    4    8 1
    10    5    6 ar
    11    5   30 1
    12    6    7 1
    13    9   10 2
    14    9   11 am
    15   11   12 1
    16   11   31 1
    17   12   16 1
    18   12   13 2
    19   13   14 1
    20   14   15 2
    21   14   17 1
    22   15   16 1
    23   15   32 1
    24   17   18 2
    25   17   19 am
    26   19   20 1
    27   19   33 1
    28   20   21 1
    29   20   34 1
    30   20   35 1
    31   21   22 1
    32   21   36 1
    33   21   37 1
    34   22   27 1
    35   22   23 1
    36   22   48 1
    37   23   24 1
    38   23   38 1
    39   23   39 1
    40   24   25 1
    41   24   40 1
    42   24   41 1
    43   25   26 1
    44   25   42 1
    45   25   43 1
    46   26   27 1
    47   26   44 1
    48   26   45 1
    49   27   46 1
    50   27   47 1
@<TRIPOS>MOLECULE
ZINC64079286
   39    41     0     0     0
SMALL
USER_CHARGES

@<TRIPOS>ATOM
      1 C1         -0.0187    1.5258    0.0104 C.3       1 <0>        -0.1701
      2 C2          0.0021   -0.0041    0.0020 C.3       1 <0>         0.2101
      3 H1         -1.0145   -0.3973   -0.0029 H         1 <0>         0.0926
      4 C3          0.7711   -0.5147   -1.1960 C.2       1 <0>        -0.2878
      5 C4          1.7949   -1.2080   -0.7441 C.2       1 <0>         0.2057
      6 N1          1.8261   -1.2382    0.6387 N.pl3     1 <0>        -0.5396
      7 N2          0.7446   -0.5142    1.1670 N.pl3     1 <0>        -0.4164
      8 C5          0.4384   -0.3177    2.5090 C.ar      1 <0>         0.2952
      9 C6         -0.6818    0.4289    2.8638 C.ar      1 <0>        -0.2011
     10 C7         -0.9876    0.6251    4.1911 C.ar      1 <0>         0.0197
     11 C8         -0.1719    0.0739    5.1836 C.ar      1 <0>        -0.2125
     12 C9          0.9523   -0.6753    4.8241 C.ar      1 <0>        -0.0180
     13 C10         1.2495   -0.8727    3.4951 C.ar      1 <0>        -0.2075
     14 C11        -0.4965    0.2828    6.6074 C.2       1 <0>         0.5818
     15 O1         -1.4744    0.9349    6.9187 O.2       1 <0>        -0.4989
     16 N3          0.2908   -0.2493    7.5632 N.am      1 <0>        -0.4739
     17 N4         -0.0175   -0.0509    8.9154 N.pl3     1 <0>        -0.3447
     18 C12         0.6483    0.8554    9.8694 C.3       1 <0>         0.1517
     19 N5         -0.0891    0.6490   11.1253 N.2       1 <0>         0.0532
     20 N6         -0.9719   -0.1878   10.9189 N.pl3     1 <0>        -0.1536
     21 C13        -0.9952   -0.6428    9.6362 C.2       1 <0>         0.2947
     22 S1         -2.1004   -1.7991    9.0259 S.2       1 <0>        -0.1358
     23 C14         2.8101   -1.8873   -1.6266 C.3       1 <0>        -0.1130
     24 Br1         0.3404   -0.2123   -3.0123 Br        1 <0>         0.0017
     25 H2          1.0039    1.9031    0.0027 H         1 <0>         0.0658
     26 H3         -0.5459    1.8868   -0.8726 H         1 <0>         0.0838
     27 H4         -0.5289    1.8773    0.9072 H         1 <0>         0.0686
     28 H5          2.4984   -1.6949    1.1682 H         1 <0>         0.4334
     29 H6         -1.3114    0.8548    2.0966 H         1 <0>         0.1443
     30 H7         -1.8565    1.2047    4.4657 H         1 <0>         0.1449
     31 H8          1.5843   -1.1024    5.5886 H         1 <0>         0.1260
     32 H9          2.1151   -1.4554    3.2167 H         1 <0>         0.1287
     33 H10         1.0709   -0.7696    7.3149 H         1 <0>         0.4430
     34 H11         1.6959    0.5801    9.9912 H         1 <0>         0.2272
     35 H12         0.5596    1.8904    9.5394 H         1 <0>         0.2249
     36 H13         3.6295   -1.1991   -1.8341 H         1 <0>         0.0940
     37 H14         3.1976   -2.7715   -1.1206 H         1 <0>         0.0801
     38 H15         2.3375   -2.1826   -2.5634 H         1 <0>         0.0990
     39 H16        -1.5909   -0.4889   11.6024 H         1 <0>         0.5032
@<TRIPOS>BOND
     1    1    2 1
     2    1   25 1
     3    1   26 1
     4    1   27 1
     5    2    3 1
     6    2    7 1
     7    2    4 1
     8    4    5 2
     9    4   24 1
    10    5    6 1
    11    5   23 1
    12    6    7 1
    13    6   28 1
    14    7    8 1
    15    8   13 ar
    16    8    9 ar
    17    9   10 ar
    18    9   29 1
    19   10   11 ar
    20   10   30 1
    21   11   12 ar
    22   11   14 1
    23   12   13 ar
    24   12   31 1
    25   13   32 1
    26   14   15 2
    27   14   16 am
    28   16   17 1
    29   16   33 1
    30   17   21 1
    31   17   18 1
    32   18   19 1
    33   18   34 1
    34   18   35 1
    35   19   20 2
    36   20   21 1
    37   20   39 1
    38   21   22 2
    39   23   36 1
    40   23   37 1
    41   23   38 1
@<TRIPOS>MOLECULE
ZINC11812977
   69    74     0     0     0
SMALL
USER_CHARGES
N-(1,3-benzodioxol-5-ylmethyl)-5-[1-[[(1S)-1-cyclohex-3-enyl]methyl]-4-hydroxy-4-piperidyl]benzofuran-2-carboxamide
@<TRIPOS>ATOM
      1 C1        -17.1246   -3.5860   -0.2333 C.ar      1 <0>        -0.0853
      2 C2        -18.1736   -2.9579    0.4127 C.ar      1 <0>        -0.1021
      3 C3        -19.0218   -2.1217   -0.2941 C.ar      1 <0>         0.0464
      4 C4        -18.8112   -1.9105   -1.6549 C.ar      1 <0>         0.0314
      5 C5        -17.7548   -2.5382   -2.2940 C.ar      1 <0>        -0.0803
      6 C6        -16.9125   -3.3724   -1.5822 C.ar      1 <0>        -0.1093
      7 C7        -15.7644   -4.0549   -2.2801 C.3       1 <0>         0.1652
      8 N1        -14.5755   -3.2014   -2.2134 N.am      1 <0>        -0.7113
      9 C8        -13.4204   -3.6099   -2.7749 C.2       1 <0>         0.5977
     10 O1        -13.3649   -4.6874   -3.3370 O.2       1 <0>        -0.5046
     11 C9        -12.2277   -2.7536   -2.7081 C.2       1 <0>        -0.0137
     12 C10       -11.0147   -3.0604   -3.2364 C.2       1 <0>        -0.1120
     13 C11       -10.1417   -1.9275   -2.9312 C.ar      1 <0>        -0.1351
     14 C12        -8.8017   -1.6323   -3.1938 C.ar      1 <0>        -0.0417
     15 C13        -8.2707   -0.4510   -2.7589 C.ar      1 <0>        -0.1451
     16 C14        -9.0524    0.4543   -2.0540 C.ar      1 <0>        -0.0825
     17 C15       -10.3775    0.1845   -1.7893 C.ar      1 <0>        -0.0967
     18 C16       -10.9401   -1.0111   -2.2217 C.ar      1 <0>         0.0803
     19 O2        -12.1725   -1.5439   -2.1125 O.3       1 <0>        -0.1802
     20 C17        -6.8253   -0.1313   -3.0409 C.3       1 <0>         0.1791
     21 C18        -6.6515    1.3849   -3.1654 C.3       1 <0>        -0.1348
     22 C19        -5.1725    1.7071   -3.3910 C.3       1 <0>         0.0015
     23 C20        -4.4953   -0.2633   -2.1536 C.3       1 <0>        -0.0015
     24 C21        -5.9540   -0.6443   -1.8910 C.3       1 <0>        -0.1716
     25 C22        -2.9760    1.6081   -2.3781 C.3       1 <0>        -0.0004
     26 C23        -2.2407    1.2775   -1.0777 C.3       1 <0>        -0.1179
     27 H1         -2.3707    0.2222   -0.8378 H         1 <0>         0.0969
     28 C24        -0.7473    1.5900   -1.2361 C.3       1 <0>        -0.1117
     29 C25        -0.0127    1.0858    0.0080 C.3       1 <0>        -0.0978
     30 C26        -0.7096    1.5670    1.2469 C.2       1 <0>        -0.1388
     31 C27        -1.9191    2.0198    1.2720 C.2       1 <0>        -0.1708
     32 C28        -2.7968    2.1361    0.0603 C.3       1 <0>        -0.0966
     33 O3         -6.4265   -0.7595   -4.2609 O.3       1 <0>        -0.5477
     34 O4        -19.7703   -1.0564   -2.1172 O.3       1 <0>        -0.3065
     35 C29       -20.8093   -1.0691   -1.1205 C.3       1 <0>         0.2123
     36 O5        -20.1128   -1.3997    0.0956 O.3       1 <0>        -0.3062
     37 H2        -16.4670   -4.2415    0.3184 H         1 <0>         0.1421
     38 H3        -18.3346   -3.1234    1.4677 H         1 <0>         0.1411
     39 H4        -17.5892   -2.3763   -3.3489 H         1 <0>         0.1387
     40 H5        -16.0267   -4.2318   -3.3231 H         1 <0>         0.0881
     41 H6        -15.5562   -5.0067   -1.7913 H         1 <0>         0.0905
     42 H7        -14.6197   -2.3423   -1.7653 H         1 <0>         0.4098
     43 H8        -10.7489   -3.9588   -3.7736 H         1 <0>         0.1760
     44 H9         -8.1881   -2.3351   -3.7379 H         1 <0>         0.1318
     45 H10        -8.6180    1.3824   -1.7128 H         1 <0>         0.1383
     46 H11       -10.9766    0.8983   -1.2436 H         1 <0>         0.1428
     47 H12        -6.9933    1.8668   -2.2495 H         1 <0>         0.1036
     48 H13        -7.2364    1.7501   -4.0096 H         1 <0>         0.1244
     49 H14        -5.0433    2.7868   -3.4658 H         1 <0>         0.1310
     50 H15        -4.8350    1.2362   -4.3143 H         1 <0>         0.1401
     51 H16        -4.1609   -0.7249   -3.0827 H         1 <0>         0.1373
     52 H17        -3.8742   -0.6147   -1.3296 H         1 <0>         0.1304
     53 H18        -6.2849   -0.1943   -0.9550 H         1 <0>         0.1001
     54 H19        -6.0406   -1.7288   -1.8247 H         1 <0>         0.1168
     55 H20        -2.9253    2.6813   -2.5614 H         1 <0>         0.1311
     56 H21        -2.5076    1.0756   -3.2058 H         1 <0>         0.1342
     57 H22        -0.6065    2.6664   -1.3337 H         1 <0>         0.0779
     58 H23        -0.3591    1.0850   -2.1206 H         1 <0>         0.0785
     59 H24         0.0021   -0.0041    0.0020 H         1 <0>         0.0812
     60 H25         1.0106    1.4611    0.0003 H         1 <0>         0.0860
     61 H26        -0.1658    1.5332    2.1794 H         1 <0>         0.1116
     62 H27        -2.3244    2.3330    2.2228 H         1 <0>         0.1125
     63 H28        -2.8359    3.1776   -0.2589 H         1 <0>         0.0859
     64 H29        -3.8029    1.7986    0.3091 H         1 <0>         0.0669
     65 H30        -6.5105   -1.7228   -4.2530 H         1 <0>         0.3907
     66 H31       -21.5546   -1.8294   -1.3538 H         1 <0>         0.0893
     67 H32       -21.2771   -0.0879   -1.0392 H         1 <0>         0.1363
     68 N2         -4.3917    1.2089   -2.2386 N.4       1 <0>        -0.3952
     69 H33        -4.7705    1.6196   -1.3771 H         1 <0>         0.4221
@<TRIPOS>BOND
     1    1    6 ar
     2    1    2 ar
     3    1   37 1
     4    2    3 ar
     5    2   38 1
     6    3   36 1
     7    3    4 ar
     8    4    5 ar
     9    4   34 1
    10    5    6 ar
    11    5   39 1
    12    6    7 1
    13    7    8 1
    14    7   40 1
    15    7   41 1
    16    8    9 am
    17    8   42 1
    18    9   10 2
    19    9   11 1
    20   11   19 1
    21   11   12 2
    22   12   13 1
    23   12   43 1
    24   13   18 ar
    25   13   14 ar
    26   14   15 ar
    27   14   44 1
    28   15   16 ar
    29   15   20 1
    30   16   17 ar
    31   16   45 1
    32   17   18 ar
    33   17   46 1
    34   18   19 1
    35   20   24 1
    36   20   21 1
    37   20   33 1
    38   21   22 1
    39   21   47 1
    40   21   48 1
    41   22   49 1
    42   22   50 1
    43   22   68 1
    44   23   24 1
    45   23   51 1
    46   23   52 1
    47   23   68 1
    48   24   53 1
    49   24   54 1
    50   25   26 1
    51   25   55 1
    52   25   56 1
    53   25   68 1
    54   26   27 1
    55   26   32 1
    56   26   28 1
    57   28   29 1
    58   28   57 1
    59   28   58 1
    60   29   30 1
    61   29   59 1
    62   29   60 1
    63   30   31 2
    64   30   61 1
    65   31   32 1
    66   31   62 1
    67   32   63 1
    68   32   64 1
    69   33   65 1
    70   34   35 1
    71   35   36 1
    72   35   66 1
    73   35   67 1
    74   68   69 1
@<TRIPOS>MOLECULE
ZINC20801230
   68    72     0     0     0
SMALL
USER_CHARGES
2-[4-[(1R)-1-[(7R)-7-methyl-4-oxo-5,6,7,8-tetrahydro-3H-benzothiopheno[2,3-d]pyrimidin-2-yl]ethyl]piperazin-1-yl]-N-(p-tolyl)acetamide
@<TRIPOS>ATOM
      1 C1         -3.2408  -11.2559   -7.9076 C.3       1 <0>        -0.1249
      2 C2         -3.1755  -11.0027   -6.4235 C.ar      1 <0>        -0.0800
      3 C3         -2.2870  -11.7164   -5.6403 C.ar      1 <0>        -0.1003
      4 C4         -2.2247  -11.4867   -4.2798 C.ar      1 <0>        -0.1277
      5 C5         -3.0556  -10.5378   -3.6986 C.ar      1 <0>         0.1173
      6 C6         -3.9509   -9.8269   -4.4870 C.ar      1 <0>        -0.1113
      7 C7         -4.0039  -10.0569   -5.8478 C.ar      1 <0>        -0.1034
      8 N1         -2.9950  -10.3027   -2.3205 N.am      1 <0>        -0.6571
      9 C8         -3.2210   -9.0649   -1.8375 C.2       1 <0>         0.5006
     10 O1         -3.3823   -8.1362   -2.6008 O.2       1 <0>        -0.5172
     11 C9         -3.2734   -8.8349   -0.3491 C.3       1 <0>        -0.0258
     12 N2         -3.5309   -7.4135   -0.0821 N.4       1 <0>        -0.3904
     13 C10        -3.8238   -7.1895    1.3405 C.3       1 <0>         0.0035
     14 C11        -4.1635   -5.7137    1.5624 C.3       1 <0>         0.0220
     15 N3         -3.0342   -4.8823    1.1229 N.3       1 <0>        -0.5131
     16 C12        -2.7413   -5.1063   -0.2997 C.3       1 <0>         0.0151
     17 C13        -2.4016   -6.5821   -0.5216 C.3       1 <0>        -0.0026
     18 C14        -3.2917   -3.4609    1.3899 C.3       1 <0>         0.1354
     19 H1         -3.5116   -3.3567    2.4627 H         1 <0>         0.1332
     20 C15        -4.4731   -2.9883    0.5403 C.3       1 <0>        -0.2001
     21 C16        -2.0674   -2.6544    1.0408 C.2       1 <0>         0.3932
     22 N4         -2.1389   -1.3039    1.1200 N.am      1 <0>        -0.6460
     23 H2         -3.0757   -0.8202    1.4337 H         1 <0>         0.4450
     24 C17        -1.0966   -0.4903    0.8279 C.2       1 <0>         0.5618
     25 O2         -1.1797    0.7234    0.9048 O.2       1 <0>        -0.5023
     26 C18         0.1125   -1.1490    0.4214 C.2       1 <0>        -0.2394
     27 C19         1.3667   -0.5164    0.0548 C.2       1 <0>        -0.0544
     28 C20         2.3813   -1.3400   -0.2991 C.2       1 <0>        -0.1601
     29 S1          1.7176   -2.9806   -0.1603 S.3       1 <0>         0.1532
     30 C21         0.0876   -2.5603    0.3694 C.2       1 <0>         0.0705
     31 N5         -0.9789   -3.2938    0.6728 N.2       1 <0>        -0.4486
     32 C22         3.7645   -0.9473   -0.7170 C.3       1 <0>        -0.0370
     33 C23         3.7663    0.5525   -1.0452 C.3       1 <0>        -0.0854
     34 H3          3.2425    0.7334   -1.9954 H         1 <0>         0.0777
     35 C24         3.0601    1.3032    0.0864 C.3       1 <0>        -0.1193
     36 C25         1.5625    0.9974    0.0579 C.3       1 <0>        -0.0616
     37 C26         5.2081    1.0482   -1.1738 C.3       1 <0>        -0.1510
     38 H4         -2.5139  -12.0357   -8.1788 H         1 <0>         0.0705
     39 H5         -3.0025  -10.3283   -8.4486 H         1 <0>         0.0749
     40 H6         -4.2537  -11.5886   -8.1786 H         1 <0>         0.0755
     41 H7         -1.6413  -12.4544   -6.0928 H         1 <0>         0.1327
     42 H8         -1.5303  -12.0441   -3.6687 H         1 <0>         0.1295
     43 H9         -4.6015   -9.0915   -4.0373 H         1 <0>         0.1305
     44 H10        -4.6966   -9.5010   -6.4623 H         1 <0>         0.1298
     45 H11        -2.7629  -11.1281   -1.6314 H         1 <0>         0.4455
     46 H12        -4.0801   -9.4420    0.0875 H         1 <0>         0.1634
     47 H13        -2.3122   -9.1242    0.1007 H         1 <0>         0.1602
     48 H14        -4.6787   -7.8128    1.6414 H         1 <0>         0.1391
     49 H15        -2.9437   -7.4588    1.9429 H         1 <0>         0.1400
     50 H16        -5.0603   -5.4525    0.9814 H         1 <0>         0.0674
     51 H17        -4.3551   -5.5382    2.6313 H         1 <0>         0.1289
     52 H18        -3.6214   -4.8370   -0.9021 H         1 <0>         0.0614
     53 H19        -1.8864   -4.4830   -0.6006 H         1 <0>         0.1450
     54 H20        -1.5052   -6.8444    0.0595 H         1 <0>         0.1350
     55 H21        -2.2104   -6.7587   -1.5904 H         1 <0>         0.1475
     56 H22        -4.6659   -1.9239    0.7402 H         1 <0>         0.0823
     57 H23        -5.3667   -3.5770    0.7951 H         1 <0>         0.0848
     58 H24        -4.2360   -3.1242   -0.5252 H         1 <0>         0.0745
     59 H25         4.4677   -1.1531    0.1034 H         1 <0>         0.0898
     60 H26         4.0576   -1.5265   -1.6051 H         1 <0>         0.0859
     61 H27         3.4771    0.9854    1.0534 H         1 <0>         0.0675
     62 H28         3.2121    2.3852   -0.0406 H         1 <0>         0.0759
     63 H29         1.1125    1.4272   -0.8492 H         1 <0>         0.0806
     64 H30         1.0782    1.4280    0.9467 H         1 <0>         0.0877
     65 H31         5.2068    2.1228   -1.4089 H         1 <0>         0.0622
     66 H32         5.7148    0.4971   -1.9798 H         1 <0>         0.0594
     67 H33         5.7393    0.8811   -0.2252 H         1 <0>         0.0585
     68 H34        -4.4172   -7.1170   -0.6623 H         1 <0>         0.4448
@<TRIPOS>BOND
     1    1    2 1
     2    1   38 1
     3    1   39 1
     4    1   40 1
     5    2    7 ar
     6    2    3 ar
     7    3    4 ar
     8    3   41 1
     9    4    5 ar
    10    4   42 1
    11    5    6 ar
    12    5    8 1
    13    6    7 ar
    14    6   43 1
    15    7   44 1
    16    8    9 am
    17    8   45 1
    18    9   10 2
    19    9   11 1
    20   11   12 1
    21   11   46 1
    22   11   47 1
    23   12   17 1
    24   12   13 1
    25   12   68 1
    26   13   14 1
    27   13   48 1
    28   13   49 1
    29   14   15 1
    30   14   50 1
    31   14   51 1
    32   15   16 1
    33   15   18 1
    34   16   17 1
    35   16   52 1
    36   16   53 1
    37   17   54 1
    38   17   55 1
    39   18   19 1
    40   18   20 1
    41   18   21 1
    42   20   56 1
    43   20   57 1
    44   20   58 1
    45   21   31 2
    46   21   22 1
    47   22   23 1
    48   22   24 am
    49   24   25 2
    50   24   26 1
    51   26   30 2
    52   26   27 1
    53   27   36 1
    54   27   28 2
    55   28   29 1
    56   28   32 1
    57   29   30 1
    58   30   31 1
    59   32   33 1
    60   32   59 1
    61   32   60 1
    62   33   34 1
    63   33   35 1
    64   33   37 1
    65   35   36 1
    66   35   61 1
    67   35   62 1
    68   36   63 1
    69   36   64 1
    70   37   65 1
    71   37   66 1
    72   37   67 1
@<TRIPOS>MOLECULE
ZINC03012018
   51    55     0     0     0
SMALL
USER_CHARGES

@<TRIPOS>ATOM
      1 C1         -0.0167    1.3782    0.0096 C.ar      1 <0>        -0.0875
      2 C2          1.1706    2.0858    0.0021 C.ar      1 <0>        -0.1070
      3 C3          2.3780    1.4104   -0.0130 C.ar      1 <0>        -0.0261
      4 C4          2.3961    0.0270   -0.0206 C.ar      1 <0>        -0.1068
      5 C5          1.2082   -0.6795   -0.0130 C.ar      1 <0>        -0.0907
      6 C6          0.0021   -0.0041    0.0020 C.ar      1 <0>        -0.1002
      7 C7         -1.2928   -0.7750    0.0107 C.3       1 <0>         0.2024
      8 H1         -2.1043   -0.1313   -0.3290 H         1 <0>         0.0916
      9 C8         -1.5881   -1.2693    1.4311 C.3       1 <0>        -0.1516
     10 C9         -2.9378   -1.9953    1.4612 C.3       1 <0>         0.1298
     11 H2         -3.7432   -1.2746    1.3204 H         1 <0>         0.1351
     12 N1         -2.9689   -2.9838    0.3794 N.pl3     1 <0>        -0.3956
     13 C10        -2.1384   -2.9473   -0.7047 C.2       1 <0>         0.3648
     14 C11        -2.4327   -3.9987   -1.4945 C.2       1 <0>        -0.2626
     15 C12        -3.4856   -4.7131   -0.8793 C.2       1 <0>         0.0673
     16 N2         -3.8005   -4.0948    0.2453 N.2       1 <0>        -0.2513
     17 C13        -4.1235   -5.9385   -1.4027 C.2       1 <0>         0.6034
     18 O1         -3.7468   -6.4182   -2.4543 O.2       1 <0>        -0.5200
     19 N3         -5.1231   -6.5245   -0.7144 N.am      1 <0>        -0.7134
     20 C14        -5.7557   -7.7397   -1.2335 C.3       1 <0>         0.1662
     21 C15        -6.8353   -8.1893   -0.2830 C.ar      1 <0>        -0.1030
     22 C16        -6.5290   -9.0593    0.7469 C.ar      1 <0>        -0.0856
     23 C17        -7.5157   -9.4742    1.6217 C.ar      1 <0>        -0.1016
     24 C18        -8.8151   -9.0190    1.4676 C.ar      1 <0>         0.0421
     25 C19        -9.1237   -8.1426    0.4302 C.ar      1 <0>         0.0301
     26 C20        -8.1285   -7.7265   -0.4393 C.ar      1 <0>        -0.0794
     27 O2        -10.4544   -7.8449    0.4918 O.3       1 <0>        -0.3073
     28 C21       -11.0381   -8.8637    1.3252 C.3       1 <0>         0.2128
     29 O3         -9.9525   -9.2702    2.1793 O.3       1 <0>        -0.3077
     30 N4         -1.1798   -1.9441   -0.8835 N.pl3     1 <0>        -0.7260
     31 C22        -3.1105   -2.7004    2.8080 C.3       1 <0>         0.4557
     32 F1         -3.0678   -1.7548    3.8382 F         1 <0>        -0.1721
     33 F2         -4.3428   -3.3622    2.8333 F         1 <0>        -0.1598
     34 F3         -2.0788   -3.6287    2.9841 F         1 <0>        -0.1721
     35 Cl1         3.8696    2.2984   -0.0231 Cl        1 <0>        -0.0611
     36 H3         -0.9592    1.9053    0.0259 H         1 <0>         0.1377
     37 H4          1.1558    3.1656    0.0076 H         1 <0>         0.1392
     38 H5          3.3383   -0.5007   -0.0327 H         1 <0>         0.1382
     39 H6          1.2222   -1.7594   -0.0193 H         1 <0>         0.1355
     40 H7         -0.8013   -1.9545    1.7468 H         1 <0>         0.1011
     41 H8         -1.6196   -0.4183    2.1114 H         1 <0>         0.1222
     42 H9         -1.9517   -4.2496   -2.4284 H         1 <0>         0.1634
     43 H10        -5.4237   -6.1417    0.1246 H         1 <0>         0.4106
     44 H11        -6.1943   -7.5325   -2.2096 H         1 <0>         0.0845
     45 H12        -5.0070   -8.5258   -1.3311 H         1 <0>         0.0869
     46 H13        -5.5167   -9.4158    0.8681 H         1 <0>         0.1423
     47 H14        -7.2736  -10.1539    2.4253 H         1 <0>         0.1394
     48 H15        -8.3639   -7.0435   -1.2420 H         1 <0>         0.1387
     49 H16       -11.8568   -8.4527    1.9158 H         1 <0>         0.1339
     50 H17       -11.3839   -9.7018    0.7202 H         1 <0>         0.0870
     51 H18        -0.4807   -2.0135   -1.5523 H         1 <0>         0.4268
@<TRIPOS>BOND
     1    1    6 ar
     2    1    2 ar
     3    1   36 1
     4    2    3 ar
     5    2   37 1
     6    3    4 ar
     7    3   35 1
     8    4    5 ar
     9    4   38 1
    10    5    6 ar
    11    5   39 1
    12    6    7 1
    13    7    8 1
    14    7   30 1
    15    7    9 1
    16    9   10 1
    17    9   40 1
    18    9   41 1
    19   10   11 1
    20   10   12 1
    21   10   31 1
    22   12   16 1
    23   12   13 1
    24   13   14 2
    25   13   30 1
    26   14   15 1
    27   14   42 1
    28   15   16 2
    29   15   17 1
    30   17   18 2
    31   17   19 am
    32   19   20 1
    33   19   43 1
    34   20   21 1
    35   20   44 1
    36   20   45 1
    37   21   26 ar
    38   21   22 ar
    39   22   23 ar
    40   22   46 1
    41   23   24 ar
    42   23   47 1
    43   24   29 1
    44   24   25 ar
    45   25   26 ar
    46   25   27 1
    47   26   48 1
    48   27   28 1
    49   28   29 1
    50   28   49 1
    51   28   50 1
    52   30   51 1
    53   31   32 1
    54   31   33 1
    55   31   34 1
@<TRIPOS>MOLECULE
ZINC39676765
   70    73     0     0     0
SMALL
USER_CHARGES

@<TRIPOS>ATOM
      1 C1          2.8843    1.6997   -0.3264 C.3       1 <0>        -0.1568
      2 C2          1.7975    1.5520    0.7403 C.3       1 <0>         0.1842
      3 H1          0.9459    1.0172    0.3198 H         1 <0>         0.1023
      4 C3          1.3559    2.9176    1.1999 C.ar      1 <0>        -0.0593
      5 C4          2.1189    3.6185    2.1158 C.ar      1 <0>        -0.1583
      6 C5          1.7165    4.8714    2.5393 C.ar      1 <0>        -0.0730
      7 C6          0.5502    5.4263    2.0487 C.ar      1 <0>        -0.2043
      8 C7         -0.2170    4.7252    1.1300 C.ar      1 <0>         0.1405
      9 C8          0.1922    3.4704    0.7018 C.ar      1 <0>        -0.1399
     10 O1         -1.3646    5.2688    0.6459 O.3       1 <0>        -0.3139
     11 C9         -1.7210    6.5664    1.1266 C.3       1 <0>         0.0248
     12 N1          2.3308    0.8019    1.8802 N.am      1 <0>        -0.7247
     13 C10         2.3181   -0.5457    1.8654 C.2       1 <0>         0.5142
     14 O2          1.8653   -1.1374    0.9085 O.2       1 <0>        -0.5060
     15 C11         2.8667   -1.3173    3.0379 C.3       1 <0>        -0.1145
     16 H2          2.6758   -0.7806    3.9672 H         1 <0>         0.1188
     17 C12         2.2406   -2.7288    3.0934 C.3       1 <0>         0.1208
     18 N2          3.2118   -3.5972    2.3873 N.am      1 <0>        -0.6157
     19 C13         4.5380   -3.0932    2.8178 C.3       1 <0>         0.0908
     20 C14         4.3747   -1.5608    2.8603 C.3       1 <0>        -0.0735
     21 C15         4.8593   -0.9432    1.5521 C.3       1 <0>        -0.1509
     22 C16         6.3714   -1.1490    1.4254 C.3       1 <0>        -0.0096
     23 N3          7.0496   -0.5224    2.5665 N.4       1 <0>        -0.5051
     24 C17         6.6475   -1.1842    3.8134 C.3       1 <0>        -0.0101
     25 C18         5.1469   -0.9802    4.0410 C.3       1 <0>        -0.1352
     26 C19         2.9489   -4.6153    1.5442 C.2       1 <0>         0.5893
     27 O3          1.8063   -4.8306    1.1887 O.2       1 <0>        -0.5021
     28 C20         4.0481   -5.4690    1.0525 C.ar      1 <0>        -0.1754
     29 C21         5.2541   -5.5325    1.7558 C.ar      1 <0>        -0.0355
     30 C22         6.2768   -6.3304    1.2941 C.ar      1 <0>        -0.2214
     31 C23         6.1110   -7.0721    0.1301 C.ar      1 <0>         0.2098
     32 C24         4.9132   -7.0117   -0.5721 C.ar      1 <0>        -0.2207
     33 C25         3.8835   -6.2201   -0.1140 C.ar      1 <0>         0.0298
     34 C26         4.7390   -7.8175   -1.8336 C.3       1 <0>         0.5177
     35 F1          3.4609   -7.5941   -2.3568 F         1 <0>        -0.1730
     36 F2          5.7014   -7.4290   -2.7717 F         1 <0>        -0.1709
     37 F3          4.8930   -9.1773   -1.5433 F         1 <0>        -0.1684
     38 O4          7.1216   -7.8570   -0.3220 O.3       1 <0>        -0.2982
     39 C27         8.3254   -7.8721    0.4479 C.3       1 <0>         0.0226
     40 H3          3.2037    0.7120   -0.6588 H         1 <0>         0.0636
     41 H4          2.4875    2.2577   -1.1745 H         1 <0>         0.0750
     42 H5          3.7359    2.2345    0.0941 H         1 <0>         0.0567
     43 H6          3.0306    3.1863    2.5010 H         1 <0>         0.1157
     44 H7          2.3142    5.4169    3.2547 H         1 <0>         0.1278
     45 H8          0.2359    6.4048    2.3805 H         1 <0>         0.1324
     46 H9         -0.4009    2.9246   -0.0170 H         1 <0>         0.1348
     47 H10        -1.8475    6.5310    2.2086 H         1 <0>         0.0584
     48 H11        -0.9324    7.2760    0.8760 H         1 <0>         0.0585
     49 H12        -2.6550    6.8822    0.6618 H         1 <0>         0.1061
     50 H13         2.6929    1.2752    2.6455 H         1 <0>         0.3977
     51 H14         2.1236   -3.0522    4.1278 H         1 <0>         0.0895
     52 H15         1.2790   -2.7385    2.5803 H         1 <0>         0.1054
     53 H16         4.7875   -3.4759    3.8074 H         1 <0>         0.0906
     54 H17         5.3045   -3.3745    2.0957 H         1 <0>         0.0910
     55 H18         4.3551   -1.4240    0.7139 H         1 <0>         0.1237
     56 H19         4.6357    0.1237    1.5486 H         1 <0>         0.1005
     57 H20         6.5928   -2.2162    1.4127 H         1 <0>         0.1316
     58 H21         6.7234   -0.6943    0.4994 H         1 <0>         0.1398
     59 H22         8.0484   -0.6061    2.4498 H         1 <0>         0.4342
     60 H23         6.8625   -2.2505    3.7442 H         1 <0>         0.1316
     61 H24         7.2028   -0.7554    4.6476 H         1 <0>         0.1411
     62 H25         4.9335    0.0853    4.1268 H         1 <0>         0.0989
     63 H26         4.8457   -1.4872    4.9576 H         1 <0>         0.1236
     64 H27         5.3838   -4.9563    2.6599 H         1 <0>         0.1434
     65 H28         7.2093   -6.3798    1.8368 H         1 <0>         0.1483
     66 H29         2.9514   -6.1771   -0.6578 H         1 <0>         0.1606
     67 H30         8.7373   -6.8642    0.4979 H         1 <0>         0.0617
     68 H31         8.1079   -8.2262    1.4555 H         1 <0>         0.0658
     69 H32         9.0493   -8.5375   -0.0227 H         1 <0>         0.1137
     70 H33         6.7995    0.4542    2.6098 H         1 <0>         0.4289
@<TRIPOS>BOND
     1    1    2 1
     2    1   40 1
     3    1   41 1
     4    1   42 1
     5    2    3 1
     6    2    4 1
     7    2   12 1
     8    4    9 ar
     9    4    5 ar
    10    5    6 ar
    11    5   43 1
    12    6    7 ar
    13    6   44 1
    14    7    8 ar
    15    7   45 1
    16    8    9 ar
    17    8   10 1
    18    9   46 1
    19   10   11 1
    20   11   47 1
    21   11   48 1
    22   11   49 1
    23   12   13 am
    24   12   50 1
    25   13   14 2
    26   13   15 1
    27   15   16 1
    28   15   20 1
    29   15   17 1
    30   17   18 1
    31   17   51 1
    32   17   52 1
    33   18   19 1
    34   18   26 am
    35   19   20 1
    36   19   53 1
    37   19   54 1
    38   20   25 1
    39   20   21 1
    40   21   22 1
    41   21   55 1
    42   21   56 1
    43   22   23 1
    44   22   57 1
    45   22   58 1
    46   23   24 1
    47   23   59 1
    48   23   70 1
    49   24   25 1
    50   24   60 1
    51   24   61 1
    52   25   62 1
    53   25   63 1
    54   26   27 2
    55   26   28 1
    56   28   33 ar
    57   28   29 ar
    58   29   30 ar
    59   29   64 1
    60   30   31 ar
    61   30   65 1
    62   31   32 ar
    63   31   38 1
    64   32   33 ar
    65   32   34 1
    66   33   66 1
    67   34   35 1
    68   34   36 1
    69   34   37 1
    70   38   39 1
    71   39   67 1
    72   39   68 1
    73   39   69 1
@<TRIPOS>MOLECULE
ZINC46055559
   69    73     0     0     0
SMALL
USER_CHARGES

@<TRIPOS>ATOM
      1 C1          0.2027    0.7318   -0.6982 C.ar      1 <0>        -0.1342
      2 C2          0.6661    1.0364    0.5745 C.ar      1 <0>        -0.0781
      3 C3          1.6343    0.2614    1.1740 C.ar      1 <0>        -0.1303
      4 C4          2.1544   -0.8386    0.4994 C.ar      1 <0>         0.1169
      5 C5          1.6813   -1.1433   -0.7899 C.ar      1 <0>        -0.1077
      6 C6          0.6997   -0.3437   -1.3787 C.ar      1 <0>        -0.0657
      7 C7          2.4150   -2.3364   -1.2188 C.2       1 <0>        -0.1814
      8 C8          3.2457   -2.6673   -0.2176 C.2       1 <0>         0.0218
      9 N1          3.1039   -1.7837    0.8174 N.pl3     1 <0>        -0.4592
     10 C9          3.8507   -1.8357    2.0767 C.3       1 <0>         0.1474
     11 C10         3.1142   -2.7061    3.0620 C.ar      1 <0>        -0.1125
     12 C11         2.1711   -2.1493    3.9061 C.ar      1 <0>        -0.0899
     13 C12         1.4952   -2.9470    4.8100 C.ar      1 <0>        -0.0970
     14 C13         1.7619   -4.3020    4.8710 C.ar      1 <0>        -0.0943
     15 C14         2.7053   -4.8597    4.0268 C.ar      1 <0>        -0.0346
     16 C15         3.3773   -4.0616    3.1179 C.ar      1 <0>        -0.1021
     17 Cl1         3.0408   -6.5612    4.1029 Cl        1 <0>        -0.0575
     18 C16         4.1942   -3.8383   -0.2317 C.3       1 <0>         0.0628
     19 N2          4.5377   -4.1735   -1.6201 N.4       1 <0>        -0.3797
     20 C17         5.3006   -3.0692   -2.2141 C.3       1 <0>        -0.0111
     21 C18         5.5913   -3.3779   -3.6844 C.3       1 <0>        -0.1278
     22 C19         6.4059   -4.6712   -3.7774 C.3       1 <0>        -0.1239
     23 C20         5.6333   -5.8002   -3.0891 C.3       1 <0>        -0.1387
     24 C21         5.3412   -5.4017   -1.6409 C.3       1 <0>        -0.0035
     25 C22         6.6290   -5.0233   -5.2256 C.2       1 <0>         0.5207
     26 O1          5.8238   -4.6783   -6.0645 O.2       1 <0>        -0.5263
     27 N3          7.7231   -5.7215   -5.5886 N.am      1 <0>        -0.6070
     28 C23         8.6447   -6.2500   -4.5737 C.3       1 <0>         0.1018
     29 C24         8.8293   -7.7523   -4.8098 C.3       1 <0>        -0.1171
     30 C25         9.2824   -7.9860   -6.2528 C.3       1 <0>        -0.1107
     31 C26         8.2087   -7.4740   -7.2157 C.3       1 <0>        -0.1274
     32 C27         8.0138   -5.9738   -7.0066 C.3       1 <0>         0.1104
     33 C28         9.4978   -9.4602   -6.4789 C.2       1 <0>         0.5205
     34 O2          9.3077  -10.2465   -5.5752 O.2       1 <0>        -0.5408
     35 N4          9.9018   -9.9050   -7.6853 N.am      1 <0>        -0.8532
     36 H1         -0.5598    1.3473   -1.1523 H         1 <0>         0.1311
     37 H2          0.2635    1.8899    1.0999 H         1 <0>         0.1339
     38 H3          1.9887    0.5070    2.1641 H         1 <0>         0.1235
     39 H4          0.3343   -0.5748   -2.3684 H         1 <0>         0.1279
     40 H5          2.3077   -2.8522   -2.1616 H         1 <0>         0.1467
     41 H6          4.8417   -2.2514    1.8945 H         1 <0>         0.0984
     42 H7          3.9482   -0.8290    2.4832 H         1 <0>         0.1105
     43 H8          1.9629   -1.0906    3.8592 H         1 <0>         0.1315
     44 H9          0.7587   -2.5116    5.4691 H         1 <0>         0.1411
     45 H10         1.2342   -4.9251    5.5779 H         1 <0>         0.1411
     46 H11         4.1108   -4.4971    2.4555 H         1 <0>         0.1245
     47 H12         5.1010   -3.5779    0.3142 H         1 <0>         0.1376
     48 H13         3.7186   -4.6968    0.2424 H         1 <0>         0.1464
     49 H14         4.7209   -2.1488   -2.1443 H         1 <0>         0.1409
     50 H15         6.2408   -2.9470   -1.6762 H         1 <0>         0.1306
     51 H16         4.6517   -3.4999   -4.2233 H         1 <0>         0.1037
     52 H17         6.1593   -2.5575   -4.1231 H         1 <0>         0.1171
     53 H18         7.3672   -4.5329   -3.2825 H         1 <0>         0.1120
     54 H19         4.6946   -5.9726   -3.6156 H         1 <0>         0.1001
     55 H20         6.2315   -6.7113   -3.1023 H         1 <0>         0.1201
     56 H21         6.2804   -5.2299   -1.1152 H         1 <0>         0.1349
     57 H22         4.7913   -6.2034   -1.1478 H         1 <0>         0.1395
     58 H23         9.6076   -5.7460   -4.6566 H         1 <0>         0.0800
     59 H24         8.2278   -6.0848   -3.5802 H         1 <0>         0.0869
     60 H25         9.5839   -8.1383   -4.1245 H         1 <0>         0.0905
     61 H26         7.8837   -8.2665   -4.6376 H         1 <0>         0.0767
     62 H27        10.2153   -7.4512   -6.4316 H         1 <0>         0.1044
     63 H28         8.5216   -7.6619   -8.2428 H         1 <0>         0.0867
     64 H29         7.2690   -7.9908   -7.0208 H         1 <0>         0.0756
     65 H30         7.1809   -5.6263   -7.6178 H         1 <0>         0.1016
     66 H31         8.9242   -5.4468   -7.2923 H         1 <0>         0.0778
     67 H32        10.0538   -9.2762   -8.4081 H         1 <0>         0.4027
     68 H33        10.0404  -10.8540   -7.8309 H         1 <0>         0.4060
     69 H34         3.6910   -4.3177   -2.1495 H         1 <0>         0.4274
@<TRIPOS>BOND
     1    1    6 ar
     2    1    2 ar
     3    1   36 1
     4    2    3 ar
     5    2   37 1
     6    3    4 ar
     7    3   38 1
     8    4    9 1
     9    4    5 ar
    10    5    6 ar
    11    5    7 1
    12    6   39 1
    13    7    8 2
    14    7   40 1
    15    8    9 1
    16    8   18 1
    17    9   10 1
    18   10   11 1
    19   10   41 1
    20   10   42 1
    21   11   16 ar
    22   11   12 ar
    23   12   13 ar
    24   12   43 1
    25   13   14 ar
    26   13   44 1
    27   14   15 ar
    28   14   45 1
    29   15   16 ar
    30   15   17 1
    31   16   46 1
    32   18   19 1
    33   18   47 1
    34   18   48 1
    35   19   24 1
    36   19   20 1
    37   19   69 1
    38   20   21 1
    39   20   49 1
    40   20   50 1
    41   21   22 1
    42   21   51 1
    43   21   52 1
    44   22   23 1
    45   22   25 1
    46   22   53 1
    47   23   24 1
    48   23   54 1
    49   23   55 1
    50   24   56 1
    51   24   57 1
    52   25   26 2
    53   25   27 am
    54   27   32 1
    55   27   28 1
    56   28   29 1
    57   28   58 1
    58   28   59 1
    59   29   30 1
    60   29   60 1
    61   29   61 1
    62   30   31 1
    63   30   33 1
    64   30   62 1
    65   31   32 1
    66   31   63 1
    67   31   64 1
    68   32   65 1
    69   32   66 1
    70   33   34 2
    71   33   35 am
    72   35   67 1
    73   35   68 1
@<TRIPOS>MOLECULE
ZINC12152173
   69    74     0     0     0
SMALL
USER_CHARGES
N-cyclopentyl-5-[4-hydroxy-1-[[1-(2-pyridyl)pyrrol-2-yl]methyl]-4-piperidyl]benzofuran-2-carboxamide
@<TRIPOS>ATOM
      1 C1         -6.9835    5.0518    0.8653 C.ar      1 <0>        -0.0334
      2 C2         -6.7518    4.6136   -0.4313 C.ar      1 <0>        -0.1719
      3 C3         -5.4600    4.6003   -0.9193 C.ar      1 <0>         0.1328
      4 N1         -4.4504    5.0026   -0.1717 N.ar      1 <0>        -0.5382
      5 C4         -4.6302    5.4218    1.0703 C.ar      1 <0>         0.3333
      6 C5         -5.9029    5.4621    1.6265 C.ar      1 <0>        -0.1740
      7 N2         -3.5302    5.8334    1.8281 N.pl3     1 <0>        -0.3861
      8 C6         -3.5752    6.2914    3.1147 C.2       1 <0>         0.0296
      9 C7         -2.3180    6.5885    3.5000 C.2       1 <0>        -0.1784
     10 C8         -1.4634    6.2993    2.4166 C.2       1 <0>        -0.1310
     11 C9         -2.2306    5.8446    1.4057 C.2       1 <0>        -0.0482
     12 C10        -1.7393    5.4167    0.0468 C.3       1 <0>         0.0813
     13 C11        -0.8320    3.5393   -1.1831 C.3       1 <0>         0.0035
     14 C12        -0.7615    2.0113   -1.2282 C.3       1 <0>        -0.1329
     15 C13        -0.0184    1.5028    0.0103 C.3       1 <0>         0.1793
     16 C14        -0.7376    1.9979    1.2681 C.3       1 <0>        -0.1689
     17 C15        -0.8102    3.5263    1.2400 C.3       1 <0>        -0.0017
     18 C16         0.0021   -0.0041    0.0020 C.ar      1 <0>        -0.1434
     19 C17        -1.0378   -0.7045   -0.5944 C.ar      1 <0>        -0.0823
     20 C18        -1.0395   -2.0823   -0.6130 C.ar      1 <0>        -0.0976
     21 C19         0.0096   -2.7837   -0.0298 C.ar      1 <0>         0.0789
     22 C20         1.0612   -2.0686    0.5729 C.ar      1 <0>        -0.1348
     23 C21         1.0465   -0.6717    0.5765 C.ar      1 <0>        -0.0417
     24 C22         1.9870   -3.0796    1.0825 C.2       1 <0>        -0.1129
     25 C23         1.4446   -4.2824    0.7610 C.2       1 <0>        -0.0147
     26 O1          0.2796   -4.0965    0.1058 O.3       1 <0>        -0.1811
     27 C24         2.0375   -5.5894    1.0781 C.2       1 <0>         0.5966
     28 O2          3.0962   -5.6486    1.6744 O.2       1 <0>        -0.5058
     29 N3          1.4082   -6.7224    0.7081 N.am      1 <0>        -0.7086
     30 C25         1.9991   -8.0252    1.0242 C.3       1 <0>         0.1367
     31 C26         2.9660   -8.4533   -0.0991 C.3       1 <0>        -0.1362
     32 C27         2.7626   -9.9846   -0.2122 C.3       1 <0>        -0.1254
     33 C28         1.2376  -10.1439    0.0069 C.3       1 <0>        -0.1256
     34 C29         0.9001   -9.1001    1.0915 C.3       1 <0>        -0.1321
     35 O3          1.3218    1.9986    0.0002 O.3       1 <0>        -0.5466
     36 H1         -7.9843    5.0724    1.2708 H         1 <0>         0.1531
     37 H2         -7.5730    4.2863   -1.0517 H         1 <0>         0.1513
     38 H3         -5.2744    4.2599   -1.9274 H         1 <0>         0.1736
     39 H4         -6.0469    5.8086    2.6392 H         1 <0>         0.1474
     40 H5         -4.4643    6.3972    3.7186 H         1 <0>         0.1807
     41 H6         -2.0194    6.9732    4.4640 H         1 <0>         0.1591
     42 H7         -0.3905    6.4220    2.3989 H         1 <0>         0.1556
     43 H8         -0.7982    5.9202   -0.1744 H         1 <0>         0.1431
     44 H9         -2.4798    5.6826   -0.7076 H         1 <0>         0.1483
     45 H10         0.1778    3.9497   -1.1843 H         1 <0>         0.1404
     46 H11        -1.3732    3.9038   -2.0563 H         1 <0>         0.1309
     47 H12        -0.2291    1.6978   -2.1262 H         1 <0>         0.1242
     48 H13        -1.7708    1.6000   -1.2413 H         1 <0>         0.1010
     49 H14        -1.7468    1.5870    1.2958 H         1 <0>         0.0944
     50 H15        -0.1882    1.6749    2.1524 H         1 <0>         0.1153
     51 H16         0.1995    3.9367    1.2275 H         1 <0>         0.1367
     52 H17        -1.3355    3.8812    2.1267 H         1 <0>         0.1302
     53 H18        -1.8547   -0.1634   -1.0485 H         1 <0>         0.1378
     54 H19        -1.8540   -2.6162   -1.0799 H         1 <0>         0.1421
     55 H20         1.8550   -0.1219    1.0353 H         1 <0>         0.1322
     56 H21         2.9144   -2.9050    1.6078 H         1 <0>         0.1754
     57 H22         0.5641   -6.6753    0.2326 H         1 <0>         0.4065
     58 H23         2.5296   -7.9735    1.9749 H         1 <0>         0.0981
     59 H24         2.7028   -7.9632   -1.0364 H         1 <0>         0.0707
     60 H25         3.9956   -8.2246    0.1761 H         1 <0>         0.0745
     61 H26         3.3211  -10.5069    0.5645 H         1 <0>         0.0727
     62 H27         3.0499  -10.3404   -1.2016 H         1 <0>         0.0722
     63 H28         1.0057  -11.1489    0.3594 H         1 <0>         0.0723
     64 H29         0.6952   -9.9268   -0.9133 H         1 <0>         0.0679
     65 H30         0.8979   -9.5706    2.0747 H         1 <0>         0.0797
     66 H31        -0.0729   -8.6524    0.8891 H         1 <0>         0.0717
     67 H32         1.8512    1.7167    0.7587 H         1 <0>         0.3901
     68 N4         -1.5581    3.9504    0.0372 N.4       1 <0>        -0.3888
     69 H33        -2.4810    3.5004    0.0430 H         1 <0>         0.4212
@<TRIPOS>BOND
     1    1    6 ar
     2    1    2 ar
     3    1   36 1
     4    2    3 ar
     5    2   37 1
     6    3    4 ar
     7    3   38 1
     8    4    5 ar
     9    5    6 ar
    10    5    7 1
    11    6   39 1
    12    7   11 1
    13    7    8 1
    14    8    9 2
    15    8   40 1
    16    9   10 1
    17    9   41 1
    18   10   11 2
    19   10   42 1
    20   11   12 1
    21   12   43 1
    22   12   44 1
    23   12   68 1
    24   13   14 1
    25   13   45 1
    26   13   46 1
    27   13   68 1
    28   14   15 1
    29   14   47 1
    30   14   48 1
    31   15   16 1
    32   15   18 1
    33   15   35 1
    34   16   17 1
    35   16   49 1
    36   16   50 1
    37   17   51 1
    38   17   52 1
    39   17   68 1
    40   18   23 ar
    41   18   19 ar
    42   19   20 ar
    43   19   53 1
    44   20   21 ar
    45   20   54 1
    46   21   26 1
    47   21   22 ar
    48   22   23 ar
    49   22   24 1
    50   23   55 1
    51   24   25 2
    52   24   56 1
    53   25   26 1
    54   25   27 1
    55   27   28 2
    56   27   29 am
    57   29   30 1
    58   29   57 1
    59   30   34 1
    60   30   31 1
    61   30   58 1
    62   31   32 1
    63   31   59 1
    64   31   60 1
    65   32   33 1
    66   32   61 1
    67   32   62 1
    68   33   34 1
    69   33   63 1
    70   33   64 1
    71   34   65 1
    72   34   66 1
    73   35   67 1
    74   68   69 1
@<TRIPOS>MOLECULE
ZINC23458722
   65    69     0     0     0
SMALL
USER_CHARGES
3,5-difluoro-N-[3-[2-[4-(4-methoxyphenyl)piperazin-1-yl]ethyl]-1H-indol-5-yl]benzamide
@<TRIPOS>ATOM
      1 C1          3.2124    9.7288   -0.3944 C.3       1 <0>         0.0211
      2 O1          2.4438    9.1428   -1.4470 O.3       1 <0>        -0.3132
      3 C2          2.2682    7.7948   -1.4066 C.ar      1 <0>         0.1256
      4 C3          1.5325    7.1616   -2.3973 C.ar      1 <0>        -0.1268
      5 C4          1.3534    5.7928   -2.3569 C.ar      1 <0>        -0.0860
      6 C5          1.9104    5.0503   -1.3241 C.ar      1 <0>         0.0462
      7 C6          2.6424    5.6857   -0.3297 C.ar      1 <0>        -0.1196
      8 C7          2.8254    7.0539   -0.3748 C.ar      1 <0>        -0.1841
      9 N1          1.7294    3.6634   -1.2823 N.pl3     1 <0>        -0.4822
     10 C8          2.3995    3.0798   -0.1117 C.3       1 <0>         0.0199
     11 C9          2.2457    1.5575   -0.1455 C.3       1 <0>         0.0011
     12 N2          0.8173    1.2121   -0.1576 N.4       1 <0>        -0.4025
     13 C10         0.1473    1.7956   -1.3281 C.3       1 <0>        -0.0035
     14 C11         0.3011    3.3180   -1.2944 C.3       1 <0>         0.0241
     15 C12         0.6274   -0.2439   -0.1137 C.3       1 <0>        -0.0026
     16 C13        -0.8511   -0.5584    0.1230 C.3       1 <0>        -0.0597
     17 C14        -1.0460   -2.0520    0.1681 C.2       1 <0>        -0.2072
     18 C15        -1.4088   -2.8410   -0.8556 C.2       1 <0>         0.0818
     19 N3         -1.4840   -4.1417   -0.4386 N.pl3     1 <0>        -0.5997
     20 H1         -1.7692   -4.9315   -1.1492 H         1 <0>         0.4513
     21 C16        -1.1627   -4.2238    0.8998 C.ar      1 <0>         0.0962
     22 C17        -0.8693   -2.9189    1.3358 C.ar      1 <0>        -0.0816
     23 C18        -0.5135   -2.6909    2.6663 C.ar      1 <0>        -0.0859
     24 C19        -0.4413   -3.7553    3.5457 C.ar      1 <0>         0.1310
     25 C20        -0.7275   -5.0474    3.1085 C.ar      1 <0>        -0.1145
     26 C21        -1.0845   -5.2815    1.7996 C.ar      1 <0>        -0.1016
     27 N4         -0.0796   -3.5343    4.8806 N.am      1 <0>        -0.6772
     28 C22        -0.4386   -2.3899    5.4955 C.2       1 <0>         0.5674
     29 O2         -1.1568   -1.5925    4.9243 O.2       1 <0>        -0.5149
     30 C23         0.0411   -2.1043    6.8643 C.ar      1 <0>        -0.0804
     31 C24         0.8611   -3.0206    7.5244 C.ar      1 <0>        -0.1341
     32 C25         1.3113   -2.7458    8.8019 C.ar      1 <0>         0.1337
     33 C26         0.9411   -1.5685    9.4312 C.ar      1 <0>        -0.1633
     34 C27         0.1224   -0.6583    8.7830 C.ar      1 <0>         0.1325
     35 C28        -0.3290   -0.9201    7.5033 C.ar      1 <0>        -0.1063
     36 F1         -0.2351    0.4877    9.4028 F         1 <0>        -0.1205
     37 F2          2.1097   -3.6293    9.4400 F         1 <0>        -0.1207
     38 H2          3.2757   10.8162   -0.5482 H         1 <0>         0.1083
     39 H3          4.2248    9.2987   -0.3964 H         1 <0>         0.0592
     40 H4          2.7283    9.5226    0.5716 H         1 <0>         0.0584
     41 H5          1.0994    7.7393   -3.2005 H         1 <0>         0.1399
     42 H6          0.7805    5.3000   -3.1284 H         1 <0>         0.1346
     43 H7          3.0719    5.1096    0.4765 H         1 <0>         0.1291
     44 H8          3.3984    7.5476    0.3960 H         1 <0>         0.1346
     45 H9          3.4676    3.3419   -0.1321 H         1 <0>         0.1281
     46 H10         1.9424    3.4752    0.8074 H         1 <0>         0.0703
     47 H11         2.7276    1.1603   -1.0510 H         1 <0>         0.1363
     48 H12         2.7219    1.1210    0.7448 H         1 <0>         0.1382
     49 H13         0.6044    1.4002   -2.2472 H         1 <0>         0.1365
     50 H14        -0.9208    1.5335   -1.3077 H         1 <0>         0.1403
     51 H15        -0.1801    3.7161   -0.3889 H         1 <0>         0.0689
     52 H16        -0.1744    3.7553   -2.1847 H         1 <0>         0.1273
     53 H17         0.9476   -0.6844   -1.0695 H         1 <0>         0.1278
     54 H18         1.2280   -0.6675    0.7047 H         1 <0>         0.1303
     55 H19        -1.1712   -0.1178    1.0787 H         1 <0>         0.0921
     56 H20        -1.4517   -0.1348   -0.6954 H         1 <0>         0.0896
     57 H21        -1.6114   -2.4993   -1.8600 H         1 <0>         0.1713
     58 H22        -0.2920   -1.6898    3.0056 H         1 <0>         0.1310
     59 H23        -0.6691   -5.8725    3.8029 H         1 <0>         0.1347
     60 H24        -1.3042   -6.2868    1.4715 H         1 <0>         0.1301
     61 H25         0.4975   -4.2947    5.4272 H         1 <0>         0.4369
     62 H26         1.1466   -3.9407    7.0364 H         1 <0>         0.1475
     63 H27         1.2919   -1.3597   10.4311 H         1 <0>         0.1591
     64 H28        -0.9667   -0.2095    6.9986 H         1 <0>         0.1572
     65 H29         0.3567    1.6392    0.7454 H         1 <0>         0.4386
@<TRIPOS>BOND
     1    1    2 1
     2    1   38 1
     3    1   39 1
     4    1   40 1
     5    2    3 1
     6    3    8 ar
     7    3    4 ar
     8    4    5 ar
     9    4   41 1
    10    5    6 ar
    11    5   42 1
    12    6    7 ar
    13    6    9 1
    14    7    8 ar
    15    7   43 1
    16    8   44 1
    17    9   14 1
    18    9   10 1
    19   10   11 1
    20   10   45 1
    21   10   46 1
    22   11   12 1
    23   11   47 1
    24   11   48 1
    25   12   13 1
    26   12   15 1
    27   12   65 1
    28   13   14 1
    29   13   49 1
    30   13   50 1
    31   14   51 1
    32   14   52 1
    33   15   16 1
    34   15   53 1
    35   15   54 1
    36   16   17 1
    37   16   55 1
    38   16   56 1
    39   17   22 1
    40   17   18 2
    41   18   19 1
    42   18   57 1
    43   19   20 1
    44   19   21 1
    45   21   26 ar
    46   21   22 ar
    47   22   23 ar
    48   23   24 ar
    49   23   58 1
    50   24   25 ar
    51   24   27 1
    52   25   26 ar
    53   25   59 1
    54   26   60 1
    55   27   28 am
    56   27   61 1
    57   28   29 2
    58   28   30 1
    59   30   35 ar
    60   30   31 ar
    61   31   32 ar
    62   31   62 1
    63   32   33 ar
    64   32   37 1
    65   33   34 ar
    66   33   63 1
    67   34   35 ar
    68   34   36 1
    69   35   64 1
@<TRIPOS>MOLECULE
ZINC38796721
   61    66     0     0     0
SMALL
USER_CHARGES

@<TRIPOS>ATOM
      1 C1          0.2361    1.7725    0.2286 C.ar      1 <0>        -0.1330
      2 C2          0.3855    0.6475    1.0189 C.ar      1 <0>        -0.0812
      3 C3          1.5513   -0.0904    0.9591 C.ar      1 <0>        -0.1594
      4 C4          2.5745    0.2985    0.1037 C.ar      1 <0>         0.1548
      5 C5          2.4211    1.4291   -0.6888 C.ar      1 <0>        -0.1433
      6 C6          1.2527    2.1624   -0.6240 C.ar      1 <0>        -0.0857
      7 N1          3.7557   -0.4457    0.0410 N.pl3     1 <0>        -0.6172
      8 C7          3.7176   -1.8223    0.2051 C.2       1 <0>         0.2991
      9 N2          4.7256   -2.6653    0.2802 N.2       1 <0>        -0.5499
     10 C8          4.5207   -3.9605    0.4395 C.2       1 <0>         0.1164
     11 C9          3.2334   -4.3753    0.5210 C.2       1 <0>        -0.2606
     12 S1          2.3714   -2.8197    0.3639 S.3       1 <0>         0.1299
     13 C10         5.6680   -4.9338    0.5262 C.3       1 <0>         0.0093
     14 S2          6.1709   -5.1229    2.2588 S.3       1 <0>        -0.1901
     15 C11         7.5413   -6.3095    2.1909 C.3       1 <0>         0.3798
     16 H1          7.9200   -6.5109    3.1930 H         1 <0>         0.1288
     17 N3          7.1092   -7.5589    1.5430 N.pl3     1 <0>        -0.5816
     18 N4          7.9046   -7.7104    0.4012 N.2       1 <0>        -0.1698
     19 C12         8.7521   -6.7233    0.2787 C.2       1 <0>         0.2529
     20 N5          8.6189   -5.8027    1.3254 N.pl3     1 <0>        -0.6290
     21 C13         9.3965   -4.5768    1.5218 C.3       1 <0>         0.1315
     22 C14         8.7798   -3.4443    0.6983 C.3       1 <0>         0.0452
     23 H2          8.6757   -3.7572   -0.3407 H         1 <0>         0.0650
     24 C15         9.6755   -2.1895    0.7801 C.3       1 <0>        -0.1498
     25 C16         8.6307   -1.0442    0.8721 C.3       1 <0>        -0.1534
     26 C17         7.5092   -1.7341    1.6889 C.3       1 <0>         0.0556
     27 O1          7.4967   -3.0980    1.2325 O.3       1 <0>        -0.3181
     28 C18         9.6796   -6.6020   -0.7674 C.2       1 <0>         0.1382
     29 C19         9.7942   -7.4197   -1.8922 C.ar      1 <0>        -0.1469
     30 C20         9.0735   -8.5536   -2.3236 C.ar      1 <0>        -0.0071
     31 C21         9.4120   -9.1636   -3.4887 C.ar      1 <0>        -0.1528
     32 C22        10.4633   -8.6964   -4.2803 C.ar      1 <0>         0.0471
     33 C23        11.1978   -7.6128   -3.9270 C.ar      1 <0>        -0.2060
     34 C24        10.9033   -6.9231   -2.7228 C.ar      1 <0>         0.3137
     35 N6         11.4570   -5.8631   -2.1669 N.pl3     1 <0>        -0.6028
     36 C25        10.7600   -5.5534   -0.9148 C.3       1 <0>         0.0755
     37 H3         -0.6784    2.3452    0.2740 H         1 <0>         0.1301
     38 H4         -0.4102    0.3460    1.6840 H         1 <0>         0.1322
     39 H5          1.6675   -0.9686    1.5769 H         1 <0>         0.1292
     40 H6          3.2147    1.7344   -1.3546 H         1 <0>         0.1285
     41 H7          1.1326    3.0413   -1.2401 H         1 <0>         0.1323
     42 H8          4.6023    0.0006   -0.1173 H         1 <0>         0.4213
     43 H9          2.8378   -5.3720    0.6495 H         1 <0>         0.1922
     44 H10         5.3552   -5.9003    0.1311 H         1 <0>         0.0814
     45 H11         6.5085   -4.5576   -0.0571 H         1 <0>         0.0992
     46 H12         6.4109   -8.1592    1.8477 H         1 <0>         0.4660
     47 H13         9.3865   -4.3054    2.5774 H         1 <0>         0.1080
     48 H14        10.4243   -4.7427    1.1990 H         1 <0>         0.0841
     49 H15        10.3008   -2.2168    1.6724 H         1 <0>         0.0834
     50 H16        10.2841   -2.0881   -0.1185 H         1 <0>         0.0782
     51 H17         9.0353   -0.1855    1.4078 H         1 <0>         0.0831
     52 H18         8.2755   -0.7560   -0.1173 H         1 <0>         0.0764
     53 H19         7.7369   -1.6930    2.7540 H         1 <0>         0.0552
     54 H20         6.5485   -1.2600    1.4880 H         1 <0>         0.0868
     55 H21         8.2563   -8.9350   -1.7294 H         1 <0>         0.1602
     56 H22         8.8550  -10.0311   -3.8107 H         1 <0>         0.1551
     57 H23        10.6980   -9.2127   -5.1993 H         1 <0>         0.1598
     58 H24        12.0051   -7.2760   -4.5604 H         1 <0>         0.1596
     59 H25        10.3142   -4.5600   -0.9666 H         1 <0>         0.1670
     60 H26        11.4549   -5.6103   -0.0771 H         1 <0>         0.1714
     61 H27        12.2050   -5.3644   -2.5312 H         1 <0>         0.4539
@<TRIPOS>BOND
     1    1    6 ar
     2    1    2 ar
     3    1   37 1
     4    2    3 ar
     5    2   38 1
     6    3    4 ar
     7    3   39 1
     8    4    5 ar
     9    4    7 1
    10    5    6 ar
    11    5   40 1
    12    6   41 1
    13    7    8 1
    14    7   42 1
    15    8   12 1
    16    8    9 2
    17    9   10 1
    18   10   11 2
    19   10   13 1
    20   11   12 1
    21   11   43 1
    22   13   14 1
    23   13   44 1
    24   13   45 1
    25   14   15 1
    26   15   16 1
    27   15   20 1
    28   15   17 1
    29   17   18 1
    30   17   46 1
    31   18   19 2
    32   19   20 1
    33   19   28 1
    34   20   21 1
    35   21   22 1
    36   21   47 1
    37   21   48 1
    38   22   23 1
    39   22   27 1
    40   22   24 1
    41   24   25 1
    42   24   49 1
    43   24   50 1
    44   25   26 1
    45   25   51 1
    46   25   52 1
    47   26   27 1
    48   26   53 1
    49   26   54 1
    50   28   36 1
    51   28   29 2
    52   29   34 ar
    53   29   30 ar
    54   30   31 ar
    55   30   55 1
    56   31   32 ar
    57   31   56 1
    58   32   33 ar
    59   32   57 1
    60   33   34 ar
    61   33   58 1
    62   34   35 2
    63   35   36 1
    64   35   61 1
    65   36   59 1
    66   36   60 1
@<TRIPOS>MOLECULE
ZINC20616933
   53    56     0     0     0
SMALL
USER_CHARGES

@<TRIPOS>ATOM
      1 C1          1.7351    0.8947    0.2943 C.3       1 <0>        -0.1174
      2 C2          0.8051   -0.2819    0.1469 C.ar      1 <0>         0.1708
      3 C3          0.3635   -0.6588   -1.1136 C.ar      1 <0>         0.0565
      4 C4         -0.5031   -1.7624   -1.2258 C.ar      1 <0>        -0.1200
      5 C5         -0.9759   -2.1803   -2.5473 C.2       1 <0>         0.1573
      6 C6         -0.3422   -1.6401   -3.6447 C.2       1 <0>        -0.2485
      7 C7          0.7593   -0.6898   -3.3898 C.2       1 <0>         0.5183
      8 N1          1.7259   -0.5260   -4.2657 N.pl3     1 <0>        -0.5013
      9 C8          2.5926    0.5245   -4.1393 C.ar      1 <0>         0.0365
     10 C9          2.1086    1.8018   -3.8451 C.ar      1 <0>        -0.0778
     11 C10         2.9873    2.8572   -3.7188 C.ar      1 <0>        -0.0749
     12 C11         4.3472    2.6537   -3.8828 C.ar      1 <0>         0.0010
     13 C12         4.8343    1.3898   -4.1751 C.ar      1 <0>        -0.0210
     14 C13         3.9657    0.3238   -4.2980 C.ar      1 <0>        -0.0681
     15 Cl1         6.5407    1.1450   -4.3801 Cl        1 <0>        -0.0021
     16 Cl2         5.4463    3.9878   -3.7221 Cl        1 <0>        -0.0014
     17 O1          0.7462    0.0106   -2.2263 O.3       1 <0>        -0.1883
     18 C14        -0.7464   -1.9963   -5.0168 C.2       1 <0>         0.5677
     19 O2         -1.5786   -2.8642   -5.1997 O.2       1 <0>        -0.4682
     20 N2         -0.1939   -1.3601   -6.0687 N.am      1 <0>        -0.6653
     21 C15        -0.6069   -1.6702   -7.3702 C.ar      1 <0>         0.0743
     22 C16        -1.0491   -2.9515   -7.6720 C.ar      1 <0>        -0.0730
     23 C17        -1.4561   -3.2566   -8.9557 C.ar      1 <0>        -0.1316
     24 C18        -1.4230   -2.2835   -9.9439 C.ar      1 <0>         0.1369
     25 C19        -0.9814   -1.0033   -9.6432 C.ar      1 <0>        -0.1890
     26 C20        -0.5798   -0.6950   -8.3585 C.ar      1 <0>        -0.0914
     27 O3         -1.8231   -2.5849  -11.2080 O.3       1 <0>        -0.3107
     28 C21        -1.7627   -1.5348  -12.1753 C.3       1 <0>         0.0231
     29 C22        -0.8878   -2.4340   -0.0591 C.ar      1 <0>        -0.0581
     30 C23        -0.3978   -1.9853    1.1498 C.ar      1 <0>         0.1441
     31 N3          0.4200   -0.9506    1.2150 N.ar      1 <0>        -0.4121
     32 C24        -1.8162   -3.6194   -0.1225 C.3       1 <0>         0.1071
     33 O4         -2.0463   -4.1153    1.1978 O.3       1 <0>        -0.5632
     34 H1          2.7678    0.5519    0.2292 H         1 <0>         0.0973
     35 H2          1.5401    1.6138   -0.5013 H         1 <0>         0.0856
     36 H3          1.5701    1.3693    1.2616 H         1 <0>         0.1035
     37 H4         -1.7882   -2.8836   -2.6571 H         1 <0>         0.2036
     38 H5          1.0483    1.9624   -3.7172 H         1 <0>         0.1530
     39 H6          2.6140    3.8448   -3.4917 H         1 <0>         0.1690
     40 H7          4.3465   -0.6619   -4.5207 H         1 <0>         0.1643
     41 H8          0.4899   -0.6875   -5.9241 H         1 <0>         0.3931
     42 H9         -1.0742   -3.7094   -6.9029 H         1 <0>         0.1514
     43 H10        -1.8000   -4.2530   -9.1906 H         1 <0>         0.1431
     44 H11        -0.9555   -0.2463  -10.4132 H         1 <0>         0.1399
     45 H12        -0.2406    0.3030   -8.1234 H         1 <0>         0.1291
     46 H13        -2.3988   -0.7094  -11.8557 H         1 <0>         0.0592
     47 H14        -0.7344   -1.1858  -12.2690 H         1 <0>         0.0592
     48 H15        -2.1089   -1.9082  -13.1390 H         1 <0>         0.1074
     49 H16        -0.6850   -2.4921    2.0593 H         1 <0>         0.1994
     50 H17        -2.7639   -3.3153   -0.5667 H         1 <0>         0.0852
     51 H18        -1.3643   -4.4026   -0.7311 H         1 <0>         0.0832
     52 H19        -2.6366   -4.8804    1.2332 H         1 <0>         0.4050
     53 H20         1.8245   -1.1502   -5.0017 H         1 <0>         0.4583
@<TRIPOS>BOND
     1    1    2 1
     2    1   34 1
     3    1   35 1
     4    1   36 1
     5    2   31 ar
     6    2    3 ar
     7    3   17 1
     8    3    4 ar
     9    4    5 1
    10    4   29 ar
    11    5    6 2
    12    5   37 1
    13    6    7 1
    14    6   18 1
    15    7    8 2
    16    7   17 1
    17    8    9 1
    18    8   53 1
    19    9   14 ar
    20    9   10 ar
    21   10   11 ar
    22   10   38 1
    23   11   12 ar
    24   11   39 1
    25   12   13 ar
    26   12   16 1
    27   13   14 ar
    28   13   15 1
    29   14   40 1
    30   18   19 2
    31   18   20 am
    32   20   21 1
    33   20   41 1
    34   21   26 ar
    35   21   22 ar
    36   22   23 ar
    37   22   42 1
    38   23   24 ar
    39   23   43 1
    40   24   25 ar
    41   24   27 1
    42   25   26 ar
    43   25   44 1
    44   26   45 1
    45   27   28 1
    46   28   46 1
    47   28   47 1
    48   28   48 1
    49   29   30 ar
    50   29   32 1
    51   30   31 ar
    52   30   49 1
    53   32   33 1
    54   32   50 1
    55   32   51 1
    56   33   52 1
@<TRIPOS>MOLECULE
ZINC63589036
   56    59     0     0     0
SMALL
USER_CHARGES

@<TRIPOS>ATOM
      1 C1         -3.1092   -5.7589   -0.1022 C.3       1 <0>         0.0232
      2 O1         -1.8044   -6.3347   -0.1920 O.3       1 <0>        -0.3120
      3 C2         -0.9641   -5.8145   -1.1224 C.ar      1 <0>         0.1611
      4 C3         -1.3873   -4.7653   -1.9294 C.ar      1 <0>        -0.2242
      5 C4         -0.5372   -4.2350   -2.8746 C.ar      1 <0>        -0.0206
      6 C5          0.7511   -4.7529   -3.0214 C.ar      1 <0>        -0.1690
      7 C6          1.1730   -5.8071   -2.2088 C.ar      1 <0>        -0.0169
      8 C7          0.3194   -6.3287   -1.2619 C.ar      1 <0>        -0.1713
      9 C8          1.6667   -4.1864   -4.0355 C.2       1 <0>         0.5480
     10 O2          1.2969   -3.2668   -4.7441 O.2       1 <0>        -0.5396
     11 N1          2.9030   -4.6847   -4.1751 N.2       1 <0>        -0.6494
     12 C9          3.6873   -4.2469   -5.1478 C.2       1 <0>         0.6979
     13 N2          3.2934   -3.1919   -5.9199 N.pl3     1 <0>        -0.6957
     14 C10         3.2448   -3.3234   -7.3119 C.ar      1 <0>         0.1922
     15 C11         2.8528   -4.5268   -7.8838 C.ar      1 <0>        -0.1494
     16 C12         2.8052   -4.6536   -9.2582 C.ar      1 <0>        -0.0566
     17 C13         3.1482   -3.5833  -10.0653 C.ar      1 <0>        -0.1204
     18 C14         3.5391   -2.3833   -9.4983 C.ar      1 <0>        -0.0601
     19 C15         3.5829   -2.2490   -8.1244 C.ar      1 <0>        -0.1529
     20 Br1         3.0830   -3.7612  -11.9467 Br        1 <0>        -0.0408
     21 N3          4.8891   -4.8500   -5.3787 N.pl3     1 <0>        -0.6906
     22 C16         5.7885   -4.3211   -6.4071 C.3       1 <0>         0.1152
     23 C17         7.0592   -5.1715   -6.4597 C.3       1 <0>        -0.1038
     24 C18         8.0348   -4.5576   -7.4305 C.2       1 <0>         0.0667
     25 C19         9.0238   -3.6804   -7.1443 C.ar      1 <0>        -0.1630
     26 C20         9.4694   -3.0584   -5.8917 C.ar      1 <0>        -0.0155
     27 C21        10.5130   -2.1986   -5.9213 C.ar      1 <0>        -0.1478
     28 C22        11.1777   -1.8871   -7.1154 C.ar      1 <0>         0.0547
     29 C23        10.8263   -2.4183   -8.3056 C.ar      1 <0>        -0.2090
     30 C24         9.7426   -3.3353   -8.3915 C.ar      1 <0>         0.3284
     31 N4          9.2185   -3.9742   -9.4092 N.pl3     1 <0>        -0.5818
     32 C25         8.1103   -4.8025   -8.9210 C.3       1 <0>         0.0596
     33 H1         -3.0231   -4.6998    0.1404 H         1 <0>         0.0595
     34 H2         -3.6229   -5.8723   -1.0569 H         1 <0>         0.0595
     35 H3         -3.6770   -6.2655    0.6783 H         1 <0>         0.1054
     36 H4         -2.3841   -4.3654   -1.8156 H         1 <0>         0.1353
     37 H5         -0.8670   -3.4198   -3.5017 H         1 <0>         0.1346
     38 H6          2.1687   -6.2104   -2.3199 H         1 <0>         0.1446
     39 H7          0.6465   -7.1412   -0.6300 H         1 <0>         0.1375
     40 H8          3.0472   -2.3512   -5.5032 H         1 <0>         0.4330
     41 H9          2.5857   -5.3627   -7.2543 H         1 <0>         0.1305
     42 H10         2.5005   -5.5892   -9.7034 H         1 <0>         0.1392
     43 H11         3.8062   -1.5495  -10.1306 H         1 <0>         0.1382
     44 H12         3.8842   -1.3108   -7.6824 H         1 <0>         0.1362
     45 H13         5.1481   -5.6289   -4.8620 H         1 <0>         0.4279
     46 H14         5.2903   -4.3519   -7.3762 H         1 <0>         0.0855
     47 H15         6.0504   -3.2909   -6.1658 H         1 <0>         0.0828
     48 H16         7.5103   -5.2124   -5.4682 H         1 <0>         0.1211
     49 H17         6.8079   -6.1806   -6.7864 H         1 <0>         0.1224
     50 H18         8.9712   -3.2836   -4.9604 H         1 <0>         0.1609
     51 H19        10.8426   -1.7398   -5.0009 H         1 <0>         0.1585
     52 H20        12.0047   -1.1933   -7.0819 H         1 <0>         0.1616
     53 H21        11.3709   -2.1453   -9.1973 H         1 <0>         0.1614
     54 H22         8.3100   -5.8556   -9.1190 H         1 <0>         0.1766
     55 H23         7.1787   -4.4998   -9.3992 H         1 <0>         0.1742
     56 H24         9.5161   -3.9127  -10.3303 H         1 <0>         0.4569
@<TRIPOS>BOND
     1    1    2 1
     2    1   33 1
     3    1   34 1
     4    1   35 1
     5    2    3 1
     6    3    8 ar
     7    3    4 ar
     8    4    5 ar
     9    4   36 1
    10    5    6 ar
    11    5   37 1
    12    6    7 ar
    13    6    9 1
    14    7    8 ar
    15    7   38 1
    16    8   39 1
    17    9   11 1
    18    9   10 2
    19   11   12 2
    20   12   13 1
    21   12   21 1
    22   13   14 1
    23   13   40 1
    24   14   19 ar
    25   14   15 ar
    26   15   16 ar
    27   15   41 1
    28   16   17 ar
    29   16   42 1
    30   17   18 ar
    31   17   20 1
    32   18   19 ar
    33   18   43 1
    34   19   44 1
    35   21   22 1
    36   21   45 1
    37   22   23 1
    38   22   46 1
    39   22   47 1
    40   23   24 1
    41   23   48 1
    42   23   49 1
    43   24   32 1
    44   24   25 2
    45   25   30 ar
    46   25   26 ar
    47   26   27 ar
    48   26   50 1
    49   27   28 ar
    50   27   51 1
    51   28   29 ar
    52   28   52 1
    53   29   30 ar
    54   29   53 1
    55   30   31 2
    56   31   32 1
    57   31   56 1
    58   32   54 1
    59   32   55 1
@<TRIPOS>MOLECULE
ZINC12293288
   62    66     0     0     0
SMALL
USER_CHARGES
(4S)-1'-[(2S)-2-(1-ethylindol-3-yl)-2-hydroxy-ethyl]spiro[chroman-2,4'-piperidine]-4,6-diol
@<TRIPOS>ATOM
      1 C1          4.5704    3.6593   -2.3002 C.3       1 <0>        -0.1744
      2 C2          3.9228    4.0704   -0.9763 C.3       1 <0>         0.1005
      3 N1          3.1347    2.9529   -0.4505 N.pl3     1 <0>        -0.4713
      4 C3          1.7926    2.7752   -0.6494 C.2       1 <0>         0.0935
      5 C4          1.3825    1.6564   -0.0314 C.2       1 <0>        -0.2418
      6 C5          2.5598    1.0643    0.6083 C.ar      1 <0>        -0.0949
      7 C6          3.6354    1.9218    0.3123 C.ar      1 <0>         0.0986
      8 C7          4.9039    1.6144    0.7930 C.ar      1 <0>        -0.1193
      9 C8          5.0922    0.4788    1.5503 C.ar      1 <0>        -0.0932
     10 C9          4.0279   -0.3637    1.8395 C.ar      1 <0>        -0.1305
     11 C10         2.7731   -0.0807    1.3777 C.ar      1 <0>        -0.0855
     12 C11        -0.0216    1.1097   -0.0061 C.3       1 <0>         0.1740
     13 H1          0.0123    0.0203   -0.0221 H         1 <0>         0.1266
     14 C12        -0.7288    1.5792    1.2668 C.3       1 <0>        -0.0355
     15 C13        -2.1345   -0.3799    1.0503 C.3       1 <0>        -0.0037
     16 C14        -3.5855   -0.8489    0.9198 C.3       1 <0>        -0.1729
     17 C15        -4.3492   -0.4952    2.1971 C.3       1 <0>         0.1152
     18 C16        -4.2605    1.0119    2.4430 C.3       1 <0>        -0.1296
     19 C17        -2.7894    1.4255    2.5283 C.3       1 <0>         0.0000
     20 C18        -5.8186   -0.9032    2.0437 C.3       1 <0>        -0.1419
     21 C19        -5.8703   -2.3914    1.6887 C.3       1 <0>         0.1515
     22 H2         -5.5265   -2.5319    0.6639 H         1 <0>         0.0730
     23 C20        -4.9817   -3.1682    2.6270 C.ar      1 <0>        -0.1789
     24 C21        -5.1610   -4.5377    2.7314 C.ar      1 <0>        -0.1063
     25 C22        -4.3587   -5.2845    3.5785 C.ar      1 <0>         0.0920
     26 C23        -3.3716   -4.6583    4.3255 C.ar      1 <0>        -0.1043
     27 C24        -3.1934   -3.2942    4.2233 C.ar      1 <0>        -0.1256
     28 C25        -3.9991   -2.5428    3.3736 C.ar      1 <0>         0.1213
     29 O1         -3.7929   -1.2005    3.3052 O.3       1 <0>        -0.3046
     30 O2         -4.5381   -6.6288    3.6774 O.3       1 <0>        -0.4951
     31 O3         -7.2144   -2.8616    1.8080 O.3       1 <0>        -0.5501
     32 O4         -0.7370    1.5808   -1.1499 O.3       1 <0>        -0.5506
     33 H3          5.1568    4.4907   -2.6914 H         1 <0>         0.0812
     34 H4          5.2220    2.8013   -2.1349 H         1 <0>         0.0644
     35 H5          3.7940    3.3931   -3.0173 H         1 <0>         0.0636
     36 H6          3.2712    4.9284   -1.1416 H         1 <0>         0.0950
     37 H7          4.6993    4.3366   -0.2592 H         1 <0>         0.0923
     38 H8          1.1569    3.4384   -1.2173 H         1 <0>         0.1683
     39 H9          5.7384    2.2639    0.5736 H         1 <0>         0.1237
     40 H10         6.0778    0.2421    1.9228 H         1 <0>         0.1314
     41 H11         4.1924   -1.2497    2.4347 H         1 <0>         0.1274
     42 H12         1.9496   -0.7407    1.6070 H         1 <0>         0.1176
     43 H13        -0.1956    1.2015    2.1392 H         1 <0>         0.1422
     44 H14        -0.7434    2.6688    1.2935 H         1 <0>         0.1324
     45 H15        -1.5931   -0.6145    0.1338 H         1 <0>         0.1375
     46 H16        -1.6626   -0.8881    1.8912 H         1 <0>         0.1341
     47 H17        -3.6068   -1.9284    0.7704 H         1 <0>         0.1172
     48 H18        -4.0527   -0.3546    0.0681 H         1 <0>         0.1082
     49 H19        -4.7624    1.2580    3.3788 H         1 <0>         0.1255
     50 H20        -4.7408    1.5434    1.6214 H         1 <0>         0.1110
     51 H21        -2.3140    0.9071    3.3610 H         1 <0>         0.1379
     52 H22        -2.7233    2.5021    2.6854 H         1 <0>         0.1331
     53 H23        -6.3475   -0.7308    2.9811 H         1 <0>         0.0989
     54 H24        -6.2808   -0.3193    1.2478 H         1 <0>         0.0989
     55 H25        -5.9295   -5.0253    2.1499 H         1 <0>         0.1336
     56 H26        -2.7435   -5.2379    4.9857 H         1 <0>         0.1424
     57 H27        -2.4252   -2.8073    4.8057 H         1 <0>         0.1383
     58 H28        -5.1669   -6.8923    4.3632 H         1 <0>         0.3972
     59 H29        -7.3238   -3.7985    1.5949 H         1 <0>         0.3868
     60 H30        -0.8067    2.5439   -1.2010 H         1 <0>         0.3851
     61 N2         -2.1210    1.0844    1.2545 N.4       1 <0>        -0.3891
     62 H31        -2.6275    1.5331    0.4822 H         1 <0>         0.4277
@<TRIPOS>BOND
     1    1    2 1
     2    1   33 1
     3    1   34 1
     4    1   35 1
     5    2    3 1
     6    2   36 1
     7    2   37 1
     8    3    7 1
     9    3    4 1
    10    4    5 2
    11    4   38 1
    12    5    6 1
    13    5   12 1
    14    6   11 ar
    15    6    7 ar
    16    7    8 ar
    17    8    9 ar
    18    8   39 1
    19    9   10 ar
    20    9   40 1
    21   10   11 ar
    22   10   41 1
    23   11   42 1
    24   12   13 1
    25   12   14 1
    26   12   32 1
    27   14   43 1
    28   14   44 1
    29   14   61 1
    30   15   16 1
    31   15   45 1
    32   15   46 1
    33   15   61 1
    34   16   17 1
    35   16   47 1
    36   16   48 1
    37   17   29 1
    38   17   18 1
    39   17   20 1
    40   18   19 1
    41   18   49 1
    42   18   50 1
    43   19   51 1
    44   19   52 1
    45   19   61 1
    46   20   21 1
    47   20   53 1
    48   20   54 1
    49   21   22 1
    50   21   23 1
    51   21   31 1
    52   23   28 ar
    53   23   24 ar
    54   24   25 ar
    55   24   55 1
    56   25   26 ar
    57   25   30 1
    58   26   27 ar
    59   26   56 1
    60   27   28 ar
    61   27   57 1
    62   28   29 1
    63   30   58 1
    64   31   59 1
    65   32   60 1
    66   61   62 1
@<TRIPOS>MOLECULE
ZINC19357707
   51    55     0     0     0
SMALL
USER_CHARGES

@<TRIPOS>ATOM
      1 C1         -0.0173    1.4248    0.0099 C.3       1 <0>         0.0202
      2 O1          0.0021   -0.0041    0.0020 O.3       1 <0>        -0.2939
      3 C2         -1.2011   -0.6379    0.0101 C.ar      1 <0>         0.1542
      4 C3         -2.3743    0.0994    0.0195 C.ar      1 <0>        -0.1723
      5 C4         -3.5965   -0.5465    0.0272 C.ar      1 <0>        -0.0767
      6 C5         -3.6519   -1.9279    0.0261 C.ar      1 <0>        -0.1593
      7 C6         -2.4852   -2.6694    0.0172 C.ar      1 <0>        -0.1155
      8 C7         -1.2569   -2.0283    0.0032 C.ar      1 <0>         0.0926
      9 O2         -0.1083   -2.7563   -0.0116 O.3       1 <0>        -0.3000
     10 C8         -0.2420   -4.1790   -0.0180 C.3       1 <0>         0.4080
     11 F1         -0.9313   -4.5878    1.1287 F         1 <0>        -0.1930
     12 F2         -0.9530   -4.5755   -1.1557 F         1 <0>        -0.1972
     13 C9         -4.9869   -2.6268    0.0350 C.3       1 <0>         0.4345
     14 H1         -4.8734   -3.6521   -0.3173 H         1 <0>         0.1585
     15 N1         -5.9422   -1.9014   -0.8221 N.pl3     1 <0>        -0.6985
     16 C10        -6.6060   -0.8084   -0.3313 C.cat     1 <0>         0.7460
     17 N2         -6.8954   -0.6971    0.9534 N.pl3     1 <0>        -0.5435
     18 C11        -6.4637   -1.6652    1.7969 C.2       1 <0>         0.4448
     19 N3         -5.5481   -2.6207    1.3906 N.pl3     1 <0>        -0.5163
     20 C12        -5.3181   -3.4636    2.4527 C.ar      1 <0>         0.1096
     21 C13        -4.5297   -4.5910    2.6428 C.ar      1 <0>        -0.1175
     22 C14        -4.5206   -5.2254    3.8703 C.ar      1 <0>         0.1242
     23 C15        -5.2981   -4.7436    4.9194 C.ar      1 <0>         0.0758
     24 C16        -6.0878   -3.6259    4.7479 C.ar      1 <0>        -0.0472
     25 C17        -6.1057   -2.9733    3.5113 C.ar      1 <0>         0.0619
     26 N4         -6.7715   -1.8713    3.0504 N.2       1 <0>        -0.4244
     27 O3         -5.2740   -5.3848    6.1253 O.3       1 <0>        -0.3097
     28 C18        -5.8579   -6.6885    6.1522 C.3       1 <0>         0.0582
     29 C19        -4.8542   -7.7385    5.7023 C.3       1 <0>        -0.1922
     30 C20        -4.4467   -7.5638    4.2478 C.3       1 <0>         0.0605
     31 O4         -3.7447   -6.3335    4.0615 O.3       1 <0>        -0.3109
     32 N5         -6.9773    0.1907   -1.1901 N.pl3     1 <0>        -0.7784
     33 H2          1.0053    1.8021    0.0021 H         1 <0>         0.1140
     34 H3         -0.5445    1.7859   -0.8732 H         1 <0>         0.0619
     35 H4         -0.5275    1.7763    0.9067 H         1 <0>         0.0621
     36 H5         -2.3338    1.1787    0.0211 H         1 <0>         0.1505
     37 H6         -4.5102    0.0294    0.0345 H         1 <0>         0.1086
     38 H7         -2.5312   -3.7485    0.0167 H         1 <0>         0.1504
     39 H8          0.7471   -4.6369   -0.0298 H         1 <0>         0.1918
     40 H9         -7.4043    0.0595    1.2844 H         1 <0>         0.4682
     41 H10        -3.9251   -4.9714    1.8327 H         1 <0>         0.1434
     42 H11        -6.6894   -3.2562    5.5651 H         1 <0>         0.1567
     43 H12        -6.1832   -6.9150    7.1676 H         1 <0>         0.1135
     44 H13        -6.7210   -6.7089    5.4868 H         1 <0>         0.0613
     45 H14        -3.9651   -7.6685    6.3290 H         1 <0>         0.0901
     46 H15        -5.2963   -8.7267    5.8289 H         1 <0>         0.0990
     47 H16        -3.8023   -8.3924    3.9539 H         1 <0>         0.1135
     48 H17        -5.3395   -7.5656    3.6225 H         1 <0>         0.0613
     49 H18        -6.7700    0.1199   -2.1350 H         1 <0>         0.4491
     50 H19        -7.4478    0.9694   -0.8537 H         1 <0>         0.4449
     51 H20        -6.1007   -2.1978   -1.7320 H         1 <0>         0.4574
@<TRIPOS>BOND
     1    1    2 1
     2    1   33 1
     3    1   34 1
     4    1   35 1
     5    2    3 1
     6    3    8 ar
     7    3    4 ar
     8    4    5 ar
     9    4   36 1
    10    5    6 ar
    11    5   37 1
    12    6    7 ar
    13    6   13 1
    14    7    8 ar
    15    7   38 1
    16    8    9 1
    17    9   10 1
    18   10   11 1
    19   10   12 1
    20   10   39 1
    21   13   14 1
    22   13   19 1
    23   13   15 1
    24   15   16 1
    25   15   51 1
    26   16   17 2
    27   16   32 1
    28   17   18 1
    29   17   40 1
    30   18   26 2
    31   18   19 1
    32   19   20 1
    33   20   25 ar
    34   20   21 ar
    35   21   22 ar
    36   21   41 1
    37   22   31 1
    38   22   23 ar
    39   23   24 ar
    40   23   27 1
    41   24   25 ar
    42   24   42 1
    43   25   26 1
    44   27   28 1
    45   28   29 1
    46   28   43 1
    47   28   44 1
    48   29   30 1
    49   29   45 1
    50   29   46 1
    51   30   31 1
    52   30   47 1
    53   30   48 1
    54   32   49 1
    55   32   50 1
@<TRIPOS>MOLECULE
ZINC40758738
   56    60     0     0     0
SMALL
USER_CHARGES

@<TRIPOS>ATOM
      1 C1          2.4552    0.9653    0.3380 C.3       1 <0>        -0.1073
      2 C2          1.8057   -0.3911    0.2417 C.ar      1 <0>         0.1577
      3 C3          1.8137   -1.0621   -0.9793 C.ar      1 <0>        -0.1686
      4 C4          1.2301   -2.2924   -1.0844 C.ar      1 <0>        -0.0527
      5 C5          0.6326   -2.8447    0.0647 C.ar      1 <0>        -0.0865
      6 C6          0.0145   -4.1054    0.0311 C.ar      1 <0>        -0.1178
      7 C7         -0.5545   -4.6132    1.1593 C.ar      1 <0>        -0.0904
      8 C8         -0.5346   -3.9004    2.3547 C.ar      1 <0>        -0.1190
      9 C9          0.0618   -2.6604    2.4276 C.ar      1 <0>         0.1766
     10 C10         0.6607   -2.1080    1.2736 C.ar      1 <0>         0.1113
     11 N1          1.2525   -0.9114    1.3104 N.ar      1 <0>        -0.4851
     12 N2          0.0740   -1.9561    3.6315 N.pl3     1 <0>        -0.6320
     13 C11        -0.0253   -2.6398    4.8379 C.ar      1 <0>         0.3786
     14 C12        -0.1418   -1.9414    6.0411 C.ar      1 <0>         0.0815
     15 C13        -0.2382   -2.6771    7.2237 C.ar      1 <0>         0.3482
     16 N3         -0.2156   -4.0063    7.1596 N.ar      1 <0>        -0.5260
     17 C14        -0.1042   -4.6268    6.0025 C.ar      1 <0>         0.2948
     18 N4         -0.0163   -3.9706    4.8633 N.ar      1 <0>        -0.5260
     19 N5         -0.3555   -2.0316    8.4489 N.pl3     1 <0>        -0.6468
     20 C15        -1.6712   -1.6080    8.9482 C.3       1 <0>         0.1312
     21 C16        -1.8862   -2.2159   10.3397 C.3       1 <0>         0.0929
     22 N6         -0.6968   -1.9452   11.1594 N.pl3     1 <0>        -0.5801
     23 C17         0.6189   -2.3688   10.6601 C.3       1 <0>         0.0820
     24 C18         0.8333   -1.7658    9.2711 C.3       1 <0>         0.1333
     25 C19        -0.8142   -1.2996   12.3848 C.ar      1 <0>         0.4445
     26 C20        -2.0765   -1.0127   12.8949 C.ar      1 <0>        -0.2014
     27 C21        -2.1786   -0.3700   14.1152 C.ar      1 <0>         0.0375
     28 C22        -1.0105   -0.0343   14.7873 C.ar      1 <0>        -0.1731
     29 C23         0.2089   -0.3492   14.2224 C.ar      1 <0>         0.1464
     30 N7          0.2761   -0.9678   13.0586 N.ar      1 <0>        -0.5093
     31 N8         -0.1609   -0.5376    6.0614 N.pl3     1 <0>        -0.8610
     32 H1          3.5049    0.8472    0.6068 H         1 <0>         0.0809
     33 H2          2.3814    1.4726   -0.6239 H         1 <0>         0.0797
     34 H3          1.9492    1.5572    1.1007 H         1 <0>         0.0762
     35 H4          2.2805   -0.6097   -1.8417 H         1 <0>         0.1398
     36 H5          1.2266   -2.8266   -2.0230 H         1 <0>         0.1434
     37 H6         -0.0100   -4.6713   -0.8884 H         1 <0>         0.1316
     38 H7         -1.0284   -5.5831    1.1260 H         1 <0>         0.1319
     39 H8         -0.9927   -4.3244    3.2360 H         1 <0>         0.1556
     40 H9          0.1517   -0.9892    3.6269 H         1 <0>         0.4216
     41 H10        -0.0891   -5.7066    5.9870 H         1 <0>         0.1996
     42 H11        -1.7043   -0.5206    9.0149 H         1 <0>         0.0690
     43 H12        -2.4498   -1.9593    8.2711 H         1 <0>         0.0987
     44 H13        -2.7620   -1.7637   10.8051 H         1 <0>         0.1067
     45 H14        -2.0314   -3.2925   10.2501 H         1 <0>         0.1025
     46 H15         1.3975   -2.0174   11.3371 H         1 <0>         0.0815
     47 H16         0.6520   -3.4562   10.5933 H         1 <0>         0.1085
     48 H17         1.7082   -2.2214    8.8073 H         1 <0>         0.0981
     49 H18         0.9825   -0.6899    9.3614 H         1 <0>         0.0667
     50 H19        -2.9645   -1.2880   12.3453 H         1 <0>         0.1781
     51 H20        -3.1449   -0.1342   14.5359 H         1 <0>         0.1735
     52 H21        -1.0558    0.4685   15.7421 H         1 <0>         0.1797
     53 H22         1.1197   -0.0896   14.7415 H         1 <0>         0.2051
     54 H23        -0.1663   -0.0406    5.2284 H         1 <0>         0.3984
     55 H24        -0.1688   -0.0648    6.9083 H         1 <0>         0.4027
     56 H25         1.1459   -1.1811   12.6858 H         1 <0>         0.4371
@<TRIPOS>BOND
     1    1    2 1
     2    1   32 1
     3    1   33 1
     4    1   34 1
     5    2   11 ar
     6    2    3 ar
     7    3    4 ar
     8    3   35 1
     9    4    5 ar
    10    4   36 1
    11    5   10 ar
    12    5    6 ar
    13    6    7 ar
    14    6   37 1
    15    7    8 ar
    16    7   38 1
    17    8    9 ar
    18    8   39 1
    19    9   10 ar
    20    9   12 1
    21   10   11 ar
    22   12   13 1
    23   12   40 1
    24   13   18 ar
    25   13   14 ar
    26   14   15 ar
    27   14   31 1
    28   15   16 ar
    29   15   19 1
    30   16   17 ar
    31   17   18 ar
    32   17   41 1
    33   19   24 1
    34   19   20 1
    35   20   21 1
    36   20   42 1
    37   20   43 1
    38   21   22 1
    39   21   44 1
    40   21   45 1
    41   22   23 1
    42   22   25 1
    43   23   24 1
    44   23   46 1
    45   23   47 1
    46   24   48 1
    47   24   49 1
    48   25   30 ar
    49   25   26 ar
    50   26   27 ar
    51   26   50 1
    52   27   28 ar
    53   27   51 1
    54   28   29 ar
    55   28   52 1
    56   29   30 ar
    57   29   53 1
    58   30   56 1
    59   31   54 1
    60   31   55 1
@<TRIPOS>MOLECULE
ZINC20573713
   53    56     0     0     0
SMALL
USER_CHARGES

@<TRIPOS>ATOM
      1 C1         -0.0167    1.3782    0.0096 C.ar      1 <0>        -0.0915
      2 C2          1.1706    2.0858    0.0021 C.ar      1 <0>        -0.1078
      3 C3          2.3780    1.4104   -0.0130 C.ar      1 <0>        -0.0315
      4 C4          2.3961    0.0270   -0.0206 C.ar      1 <0>        -0.1087
      5 C5          1.2082   -0.6795   -0.0130 C.ar      1 <0>        -0.0924
      6 C6          0.0021   -0.0041    0.0020 C.ar      1 <0>        -0.0691
      7 C7         -1.2928   -0.7750    0.0107 C.3       1 <0>        -0.1007
      8 C8         -1.7385   -1.0243   -1.4071 C.2       1 <0>         0.5200
      9 O1         -1.0704   -0.6162   -2.3335 O.2       1 <0>        -0.5253
     10 N1         -2.8795   -1.7008   -1.6458 N.am      1 <0>        -0.7256
     11 C9         -3.3127   -1.9432   -3.0241 C.3       1 <0>         0.1017
     12 C10        -4.6076   -2.7141   -3.0154 C.2       1 <0>         0.5157
     13 O2         -5.1183   -3.0299   -1.9617 O.2       1 <0>        -0.5220
     14 N2         -5.1982   -3.0525   -4.1787 N.am      1 <0>        -0.6163
     15 C11        -4.5888   -2.6824   -5.4634 C.3       1 <0>         0.1009
     16 C12        -4.4378   -3.9443   -6.3189 C.3       1 <0>        -0.1272
     17 C13        -5.7942   -4.6394   -6.4413 C.3       1 <0>         0.1880
     18 C14        -6.2935   -5.0490   -5.0555 C.3       1 <0>        -0.1647
     19 C15        -6.4608   -3.8040   -4.1867 C.3       1 <0>         0.1106
     20 C16        -5.6603   -5.8614   -7.3135 C.2       1 <0>         0.0295
     21 C17        -6.5522   -6.1850   -8.2779 C.2       1 <0>         0.0769
     22 N3         -6.1170   -7.3337   -8.8576 N.pl3     1 <0>        -0.4999
     23 H1         -6.5465   -7.8125   -9.5837 H         1 <0>         0.4667
     24 C18        -4.9696   -7.6832   -8.2295 C.cat     1 <0>         0.2971
     25 N4         -4.7067   -6.7938   -7.3067 N.pl3     1 <0>        -0.4603
     26 C19        -7.7794   -5.3655   -8.5833 C.3       1 <0>        -0.0565
     27 C20        -8.0168   -4.4141   -7.4016 C.3       1 <0>         0.0484
     28 N5         -6.7631   -3.7243   -7.0645 N.3       1 <0>        -0.6738
     29 Cl1         3.8696    2.2984   -0.0231 Cl        1 <0>        -0.0661
     30 H2         -0.9592    1.9053    0.0259 H         1 <0>         0.1305
     31 H3          1.1558    3.1656    0.0076 H         1 <0>         0.1355
     32 H4          3.3383   -0.5007   -0.0327 H         1 <0>         0.1348
     33 H5          1.2222   -1.7594   -0.0193 H         1 <0>         0.1293
     34 H6         -1.1447   -1.7283    0.5180 H         1 <0>         0.1092
     35 H7         -2.0551   -0.1989    0.5352 H         1 <0>         0.1102
     36 H8         -3.4138   -2.0272   -0.9049 H         1 <0>         0.4139
     37 H9         -3.4608   -0.9899   -3.5314 H         1 <0>         0.1026
     38 H10        -2.5504   -2.5193   -3.5486 H         1 <0>         0.0990
     39 H11        -5.2287   -1.9660   -5.9786 H         1 <0>         0.0898
     40 H12        -3.6081   -2.2399   -5.2887 H         1 <0>         0.1032
     41 H13        -4.0788   -3.6703   -7.3110 H         1 <0>         0.1005
     42 H14        -3.7242   -4.6200   -5.8475 H         1 <0>         0.0759
     43 H15        -7.2520   -5.5592   -5.1505 H         1 <0>         0.0906
     44 H16        -5.5693   -5.7184   -4.5913 H         1 <0>         0.0808
     45 H17        -6.7154   -4.1016   -3.1695 H         1 <0>         0.1096
     46 H18        -7.2549   -3.1800   -4.5967 H         1 <0>         0.0744
     47 H19        -4.3704   -8.5534   -8.4530 H         1 <0>         0.2693
     48 H20        -7.6206   -4.7891   -9.4947 H         1 <0>         0.1169
     49 H21        -8.6404   -6.0224   -8.7067 H         1 <0>         0.1082
     50 H22        -8.7736   -3.6786   -7.6743 H         1 <0>         0.1104
     51 H23        -8.3605   -4.9853   -6.5392 H         1 <0>         0.0558
     52 H24        -6.9377   -2.9254   -6.4735 H         1 <0>         0.3705
     53 H25        -3.9405   -6.8102   -6.7121 H         1 <0>         0.4633
@<TRIPOS>BOND
     1    1    6 ar
     2    1    2 ar
     3    1   30 1
     4    2    3 ar
     5    2   31 1
     6    3    4 ar
     7    3   29 1
     8    4    5 ar
     9    4   32 1
    10    5    6 ar
    11    5   33 1
    12    6    7 1
    13    7    8 1
    14    7   34 1
    15    7   35 1
    16    8    9 2
    17    8   10 am
    18   10   11 1
    19   10   36 1
    20   11   12 1
    21   11   37 1
    22   11   38 1
    23   12   13 2
    24   12   14 am
    25   14   19 1
    26   14   15 1
    27   15   16 1
    28   15   39 1
    29   15   40 1
    30   16   17 1
    31   16   41 1
    32   16   42 1
    33   17   28 1
    34   17   18 1
    35   17   20 1
    36   18   19 1
    37   18   43 1
    38   18   44 1
    39   19   45 1
    40   19   46 1
    41   20   25 1
    42   20   21 2
    43   21   22 1
    44   21   26 1
    45   22   23 1
    46   22   24 1
    47   24   25 2
    48   24   47 1
    49   25   53 1
    50   26   27 1
    51   26   48 1
    52   26   49 1
    53   27   28 1
    54   27   50 1
    55   27   51 1
    56   28   52 1
@<TRIPOS>MOLECULE
ZINC64375884
   50    52     0     0     0
SMALL
USER_CHARGES

@<TRIPOS>ATOM
      1 C1          2.3679   -6.0696   -0.7684 C.ar      1 <0>        -0.1040
      2 C2          2.4052   -5.1475   -1.7987 C.ar      1 <0>        -0.1136
      3 C3          3.0458   -3.9377   -1.6227 C.ar      1 <0>        -0.0816
      4 C4          3.6557   -3.6461   -0.4043 C.ar      1 <0>        -0.0943
      5 C5          3.6152   -4.5787    0.6301 C.ar      1 <0>        -0.1332
      6 C6          2.9718   -5.7854    0.4431 C.ar      1 <0>        -0.1090
      7 C7          4.3464   -2.3473   -0.2093 C.ar      1 <0>         0.0666
      8 C8          5.3735   -1.9653   -1.0702 C.ar      1 <0>        -0.1177
      9 C9          6.0121   -0.7561   -0.8845 C.ar      1 <0>        -0.0568
     10 C10         5.6343    0.0762    0.1540 C.ar      1 <0>        -0.1299
     11 C11         4.6160   -0.2981    1.0116 C.ar      1 <0>        -0.0432
     12 C12         3.9665   -1.5028    0.8316 C.ar      1 <0>        -0.6665
     13 S1          2.6643   -1.9749    1.9207 S.o2      1 <0>         2.6920
     14 O1          1.5600   -2.3339    1.1017 O.2       1 <0>        -0.9219
     15 O2          3.2317   -2.8682    2.8690 O.2       1 <0>        -0.9329
     16 N1          2.2115   -0.6202    2.7586 N.pl3     1 <0>        -0.9189
     17 N2          1.7039    0.4908    2.0724 N.am      1 <0>        -0.5146
     18 C13         0.4998    0.9963    2.4056 C.2       1 <0>         0.7223
     19 O3          0.0593    1.9605    1.8101 O.2       1 <0>        -0.5608
     20 N3         -0.2162    0.4329    3.3988 N.am      1 <0>        -0.7421
     21 C14        -1.5251    0.9823    3.7610 C.3       1 <0>         0.1372
     22 C15        -2.1214    0.1649    4.9087 C.3       1 <0>        -0.1578
     23 C16        -3.4884    0.7387    5.2869 C.3       1 <0>         0.0958
     24 N4         -4.0594   -0.0439    6.3858 N.pl3     1 <0>        -0.4087
     25 C17        -4.8542   -1.1520    6.2665 C.2       1 <0>         0.0263
     26 C18        -5.1522   -1.5542    7.5168 C.2       1 <0>         0.0044
     27 N5         -4.5556   -0.7146    8.3760 N.pl3     1 <0>        -0.4761
     28 C19        -3.8951    0.1896    7.7057 C.cat     1 <0>         0.2884
     29 H1          1.8617   -7.0132   -0.9090 H         1 <0>         0.1294
     30 H2          1.9324   -5.3746   -2.7428 H         1 <0>         0.1313
     31 H3          3.0746   -3.2185   -2.4279 H         1 <0>         0.1287
     32 H4          4.0866   -4.3580    1.5764 H         1 <0>         0.1418
     33 H5          2.9395   -6.5089    1.2443 H         1 <0>         0.1312
     34 H6          5.6695   -2.6145   -1.8809 H         1 <0>         0.1403
     35 H7          6.8085   -0.4592   -1.5508 H         1 <0>         0.1397
     36 H8          6.1368    1.0217    0.2957 H         1 <0>         0.1385
     37 H9          4.3255    0.3552    1.8210 H         1 <0>         0.1342
     38 H10         2.2976   -0.5959    3.7244 H         1 <0>         0.4242
     39 H11         2.2192    0.8963    1.3576 H         1 <0>         0.4364
     40 H12         0.1352   -0.3364    3.8739 H         1 <0>         0.3997
     41 H13        -1.4094    2.0195    4.0754 H         1 <0>         0.0815
     42 H14        -2.1898    0.9361    2.8983 H         1 <0>         0.0819
     43 H15        -2.2371   -0.8723    4.5942 H         1 <0>         0.0908
     44 H16        -1.4567    0.2111    5.7713 H         1 <0>         0.0878
     45 H17        -3.3727    1.7759    5.6013 H         1 <0>         0.1280
     46 H18        -4.1531    0.6925    4.4243 H         1 <0>         0.1310
     47 H19        -5.1799   -1.6146    5.3466 H         1 <0>         0.2238
     48 H20        -5.7642   -2.4038    7.7812 H         1 <0>         0.2242
     49 H21        -3.3154    0.9931    8.1354 H         1 <0>         0.2602
     50 H22        -4.6044   -0.7726    9.3430 H         1 <0>         0.4658
@<TRIPOS>BOND
     1    1    6 ar
     2    1    2 ar
     3    1   29 1
     4    2    3 ar
     5    2   30 1
     6    3    4 ar
     7    3   31 1
     8    4    5 ar
     9    4    7 1
    10    5    6 ar
    11    5   32 1
    12    6   33 1
    13    7   12 ar
    14    7    8 ar
    15    8    9 ar
    16    8   34 1
    17    9   10 ar
    18    9   35 1
    19   10   11 ar
    20   10   36 1
    21   11   12 ar
    22   11   37 1
    23   12   13 1
    24   13   14 2
    25   13   15 2
    26   13   16 1
    27   16   17 1
    28   16   38 1
    29   17   18 am
    30   17   39 1
    31   18   19 2
    32   18   20 am
    33   20   21 1
    34   20   40 1
    35   21   22 1
    36   21   41 1
    37   21   42 1
    38   22   23 1
    39   22   43 1
    40   22   44 1
    41   23   24 1
    42   23   45 1
    43   23   46 1
    44   24   28 1
    45   24   25 1
    46   25   26 2
    47   25   47 1
    48   26   27 1
    49   26   48 1
    50   27   28 2
    51   27   50 1
    52   28   49 1
@<TRIPOS>MOLECULE
ZINC20869335
   52    55     0     0     0
SMALL
USER_CHARGES
(3R,4R)-4-(4-hydroxy-1-piperidyl)-1-(1H-indol-3-ylmethyl)piperidin-3-ol
@<TRIPOS>ATOM
      1 C1          2.3559    1.1191   -0.1902 C.ar      1 <0>        -0.1395
      2 C2          2.2613   -0.2660   -0.1931 C.ar      1 <0>        -0.0974
      3 C3          1.0332   -0.8864   -0.1280 C.ar      1 <0>        -0.1257
      4 C4         -0.1256   -0.1196   -0.0587 C.ar      1 <0>         0.0866
      5 C5         -0.0243    1.2834   -0.0561 C.ar      1 <0>        -0.1012
      6 C6          1.2309    1.8914   -0.1234 C.ar      1 <0>        -0.0814
      7 C7         -1.3968    1.7882    0.0304 C.2       1 <0>        -0.2293
      8 C8         -2.2069    0.7183    0.0639 C.2       1 <0>         0.0847
      9 N1         -1.4649   -0.4303    0.0152 N.pl3     1 <0>        -0.6045
     10 H1         -1.7856   -1.4825    0.0272 H         1 <0>         0.4467
     11 C9         -1.8196    3.2342    0.0651 C.3       1 <0>         0.1296
     12 N2         -1.8092    3.7803   -1.2986 N.3       1 <0>        -0.5245
     13 C10        -2.8336    3.1366   -2.1310 C.3       1 <0>         0.0505
     14 C11        -2.8923    3.8276   -3.4952 C.3       1 <0>        -0.1372
     15 C12        -1.5222    3.7286   -4.1715 C.3       1 <0>         0.0465
     16 H2         -1.2701    2.6804   -4.3898 H         1 <0>         0.1357
     17 C13        -0.4659    4.3630   -3.2624 C.3       1 <0>         0.1048
     18 H3         -0.6285    5.4453   -3.1524 H         1 <0>         0.0818
     19 C14        -0.4775    3.6565   -1.9049 C.3       1 <0>         0.0215
     20 O1          0.8242    4.2247   -3.8612 O.3       1 <0>        -0.6112
     21 N3         -1.5560    4.4407   -5.4559 N.4       1 <0>        -0.3971
     22 C15        -2.4832    3.7929   -6.3925 C.3       1 <0>        -0.0013
     23 C16        -2.3846    4.4709   -7.7610 C.3       1 <0>        -0.1416
     24 C17        -2.7305    5.9554   -7.6158 C.3       1 <0>         0.1061
     25 C18        -1.7814    6.5955   -6.5989 C.3       1 <0>        -0.1779
     26 C19        -1.8975    5.8560   -5.2642 C.3       1 <0>        -0.0082
     27 O2         -2.5860    6.6065   -8.8796 O.3       1 <0>        -0.5919
     28 H4          3.3265    1.5898   -0.2417 H         1 <0>         0.1234
     29 H5          3.1596   -0.8630   -0.2465 H         1 <0>         0.1275
     30 H6          0.9700   -1.9646   -0.1305 H         1 <0>         0.1216
     31 H7          1.3121    2.9684   -0.1219 H         1 <0>         0.1164
     32 H8         -3.2845    0.7582    0.1246 H         1 <0>         0.1669
     33 H9         -2.8345    3.3095    0.4825 H         1 <0>         0.0900
     34 H10        -1.1211    3.8055    0.6942 H         1 <0>         0.0899
     35 H11        -2.5803    2.0751   -2.2687 H         1 <0>         0.0510
     36 H12        -3.8127    3.2187   -1.6364 H         1 <0>         0.0975
     37 H13        -3.6495    3.3354   -4.1232 H         1 <0>         0.0959
     38 H14        -3.1603    4.8857   -3.3590 H         1 <0>         0.0979
     39 H15         0.2705    4.1197   -1.2446 H         1 <0>         0.0942
     40 H16        -0.2353    2.5925   -2.0437 H         1 <0>         0.0694
     41 H17         1.7133    4.6228   -3.3503 H         1 <0>         0.4420
     42 H18        -2.2211    2.7291   -6.4911 H         1 <0>         0.1349
     43 H19        -3.5114    3.8834   -6.0122 H         1 <0>         0.1282
     44 H20        -1.3603    4.3675   -8.1485 H         1 <0>         0.0960
     45 H21        -3.0900    3.9947   -8.4578 H         1 <0>         0.1180
     46 H22        -3.7830    6.0967   -7.3291 H         1 <0>         0.0690
     47 H23        -0.7477    6.5277   -6.9689 H         1 <0>         0.0962
     48 H24        -2.0523    7.6524   -6.4592 H         1 <0>         0.1122
     49 H25        -2.9285    5.9369   -4.8892 H         1 <0>         0.1279
     50 H26        -1.2061    6.3046   -4.5357 H         1 <0>         0.1330
     51 H27        -2.7930    7.6830   -8.9706 H         1 <0>         0.4267
     52 H28        -0.5488    4.3955   -5.8959 H         1 <0>         0.4497
@<TRIPOS>BOND
     1    1    6 ar
     2    1    2 ar
     3    1   28 1
     4    2    3 ar
     5    2   29 1
     6    3    4 ar
     7    3   30 1
     8    4    9 1
     9    4    5 ar
    10    5    6 ar
    11    5    7 1
    12    6   31 1
    13    7    8 2
    14    7   11 1
    15    8    9 1
    16    8   32 1
    17    9   10 1
    18   11   12 1
    19   11   33 1
    20   11   34 1
    21   12   19 1
    22   12   13 1
    23   13   14 1
    24   13   35 1
    25   13   36 1
    26   14   15 1
    27   14   37 1
    28   14   38 1
    29   15   16 1
    30   15   17 1
    31   15   21 1
    32   17   18 1
    33   17   19 1
    34   17   20 1
    35   19   39 1
    36   19   40 1
    37   20   41 1
    38   21   26 1
    39   21   22 1
    40   21   52 1
    41   22   23 1
    42   22   42 1
    43   22   43 1
    44   23   24 1
    45   23   44 1
    46   23   45 1
    47   24   25 1
    48   24   27 1
    49   24   46 1
    50   25   26 1
    51   25   47 1
    52   25   48 1
    53   26   49 1
    54   26   50 1
    55   27   51 1
@<TRIPOS>MOLECULE
ZINC39217362
   44    47     0     0     0
SMALL
USER_CHARGES

@<TRIPOS>ATOM
      1 C1         -0.0184    1.5028    0.0103 C.3       1 <0>        -0.1213
      2 C2          0.0021   -0.0041    0.0020 C.ar      1 <0>         0.2064
      3 C3          0.0058   -0.6882   -1.1971 C.ar      1 <0>        -0.1452
      4 C4          0.0339   -2.0710   -1.2021 C.ar      1 <0>         0.0245
      5 C5          0.0544   -2.7624    0.0125 C.ar      1 <0>        -0.2657
      6 C6          0.0329   -1.9892    1.1729 C.ar      1 <0>         0.1650
      7 N1          0.0219   -0.6707    1.1415 N.ar      1 <0>        -0.4445
      8 S1          0.0135   -3.1332    2.5369 S.3       1 <0>        -0.0056
      9 C7         -0.3821   -4.6721    1.6082 C.3       1 <0>        -0.0427
     10 H1          0.1825   -5.5228    1.9900 H         1 <0>         0.1914
     11 C8          0.1066   -4.2570    0.2021 C.3       1 <0>         0.0915
     12 H2         -0.5243   -4.7330   -0.5486 H         1 <0>         0.1690
     13 N2          1.4906   -4.7151    0.0211 N.4       1 <0>        -0.6290
     14 C9         -1.8626   -4.9531    1.6157 C.2       1 <0>         0.3751
     15 N3         -2.7150   -3.9130    1.8088 N.am      1 <0>        -0.6477
     16 C10        -4.0535   -4.1127    1.8245 C.2       1 <0>         0.5513
     17 O1         -4.8286   -3.1901    1.9965 O.2       1 <0>        -0.4861
     18 C11        -4.5350   -5.4878    1.6253 C.ar      1 <0>        -0.1797
     19 C12        -5.8928   -5.8005    1.6244 C.ar      1 <0>        -0.0434
     20 C13        -6.2885   -7.1062    1.4335 C.ar      1 <0>        -0.1138
     21 C14        -5.3467   -8.1090    1.2427 C.ar      1 <0>        -0.0713
     22 C15        -4.0005   -7.8211    1.2406 C.ar      1 <0>        -0.0938
     23 C16        -3.5744   -6.5050    1.4316 C.ar      1 <0>         0.1292
     24 N4         -2.2584   -6.1760    1.4321 N.2       1 <0>        -0.4798
     25 C17         0.0417   -2.8260   -2.5063 C.3       1 <0>         0.0865
     26 O2          0.0166   -1.8990   -3.5935 O.3       1 <0>        -0.3777
     27 C18         0.0217   -2.5151   -4.8828 C.3       1 <0>         0.0268
     28 H3          1.0042    1.8801    0.0026 H         1 <0>         0.0999
     29 H4         -0.5455    1.8639   -0.8728 H         1 <0>         0.0948
     30 H5         -0.5286    1.8543    0.9071 H         1 <0>         0.0939
     31 H6         -0.0135   -0.1444   -2.1300 H         1 <0>         0.1694
     32 H7          2.0893   -4.2474    0.6851 H         1 <0>         0.4415
     33 H8         -6.6297   -5.0249    1.7726 H         1 <0>         0.1454
     34 H9         -7.3401   -7.3522    1.4326 H         1 <0>         0.1433
     35 H10        -5.6746   -9.1273    1.0946 H         1 <0>         0.1437
     36 H11        -3.2774   -8.6093    1.0913 H         1 <0>         0.1451
     37 H12         0.9439   -3.4345   -2.5684 H         1 <0>         0.0657
     38 H13        -0.8357   -3.4707   -2.5581 H         1 <0>         0.0816
     39 H14         0.9235   -3.1171   -4.9943 H         1 <0>         0.0497
     40 H15        -0.8561   -3.1533   -4.9840 H         1 <0>         0.0510
     41 H16         0.0016   -1.7447   -5.6537 H         1 <0>         0.1020
     42 H17         1.5372   -5.7119    0.1702 H         1 <0>         0.4461
     43 H18        -2.3610   -3.0190    1.9369 H         1 <0>         0.4170
     44 H19         1.7959   -4.5006   -0.9164 H         1 <0>         0.4406
@<TRIPOS>BOND
     1    1    2 1
     2    1   28 1
     3    1   29 1
     4    1   30 1
     5    2    7 ar
     6    2    3 ar
     7    3    4 ar
     8    3   31 1
     9    4    5 ar
    10    4   25 1
    11    5   11 1
    12    5    6 ar
    13    6    7 ar
    14    6    8 1
    15    8    9 1
    16    9   10 1
    17    9   11 1
    18    9   14 1
    19   11   12 1
    20   11   13 1
    21   13   32 1
    22   13   42 1
    23   13   44 1
    24   14   24 2
    25   14   15 1
    26   15   16 am
    27   15   43 1
    28   16   17 2
    29   16   18 1
    30   18   23 ar
    31   18   19 ar
    32   19   20 ar
    33   19   33 1
    34   20   21 ar
    35   20   34 1
    36   21   22 ar
    37   21   35 1
    38   22   23 ar
    39   22   36 1
    40   23   24 1
    41   25   26 1
    42   25   37 1
    43   25   38 1
    44   26   27 1
    45   27   39 1
    46   27   40 1
    47   27   41 1
@<TRIPOS>MOLECULE
ZINC48007969
   53    55     0     0     0
SMALL
USER_CHARGES

@<TRIPOS>ATOM
      1 C1         -0.0187    1.5258    0.0104 C.3       1 <0>        -0.1683
      2 C2          0.0021   -0.0041    0.0020 C.3       1 <0>         0.1447
      3 H1          0.5123   -0.3556   -0.8948 H         1 <0>         0.1076
      4 C3         -1.4333   -0.5336    0.0129 C.3       1 <0>         0.0830
      5 N1         -1.4164   -1.9929   -0.1155 N.pl3     1 <0>        -0.4047
      6 C4         -1.4448   -2.7059   -1.2836 C.2       1 <0>         0.0292
      7 C5         -1.4139   -4.0091   -0.9455 C.2       1 <0>         0.0059
      8 N2         -1.3679   -4.0896    0.3925 N.pl3     1 <0>        -0.4736
      9 C6         -1.3640   -2.8858    0.8963 C.cat     1 <0>         0.2828
     10 N3          0.7106   -0.4894    1.1889 N.am      1 <0>        -0.7559
     11 C7          2.0538   -0.5998    1.1737 C.2       1 <0>         0.7050
     12 O1          2.6774   -0.2967    0.1749 O.2       1 <0>        -0.5722
     13 N4          2.7056   -1.0463    2.2656 N.am      1 <0>        -0.7407
     14 C8          4.1656   -1.1663    2.2490 C.3       1 <0>         0.1404
     15 C9          4.6495   -1.6916    3.6021 C.3       1 <0>        -0.1480
     16 C10         6.1742   -1.8170    3.5848 C.3       1 <0>         0.1210
     17 N5          6.6376   -2.3200    4.8804 N.am      1 <0>        -0.5792
     18 C11         6.9631   -1.5326    5.9283 C.2       1 <0>         0.5339
     19 O2          6.9297   -0.3217    5.9767 O.2       1 <0>        -0.4543
     20 C12         7.3761   -2.4807    7.0250 C.3       1 <0>         0.1149
     21 C13         6.4791   -2.3204    8.2595 C.3       1 <0>        -0.1194
     22 C14         7.4378   -2.5647    9.4537 C.3       1 <0>        -0.1233
     23 C15         8.7561   -1.9031    8.9785 C.3       1 <0>        -0.1242
     24 C16         8.8182   -2.2230    7.4683 C.3       1 <0>        -0.1195
     25 N6          7.2287   -3.8120    6.4334 N.am      1 <0>        -0.7143
     26 C17         6.7856   -3.6181    5.1749 C.2       1 <0>         0.7022
     27 O3          6.5503   -4.5196    4.3945 O.2       1 <0>        -0.5406
     28 H2          1.0039    1.9031    0.0027 H         1 <0>         0.0816
     29 H3         -0.5459    1.8868   -0.8726 H         1 <0>         0.0783
     30 H4         -0.5289    1.8773    0.9072 H         1 <0>         0.0679
     31 H5         -1.9156   -0.2570    0.9504 H         1 <0>         0.1279
     32 H6         -1.9862   -0.1019   -0.8214 H         1 <0>         0.1435
     33 H7         -1.4846   -2.3011   -2.2841 H         1 <0>         0.2247
     34 H8         -1.4242   -4.8431   -1.6316 H         1 <0>         0.2246
     35 H9         -1.3277   -2.6437    1.9482 H         1 <0>         0.2545
     36 H10         0.2131   -0.7312    1.9857 H         1 <0>         0.3919
     37 H11         2.2081   -1.2881    3.0624 H         1 <0>         0.3966
     38 H12         4.4643   -1.8592    1.4624 H         1 <0>         0.0754
     39 H13         4.6084   -0.1885    2.0594 H         1 <0>         0.0770
     40 H14         4.3508   -0.9988    4.3888 H         1 <0>         0.0775
     41 H15         4.2067   -2.6694    3.7917 H         1 <0>         0.0778
     42 H16         6.4730   -2.5098    2.7982 H         1 <0>         0.1032
     43 H17         6.6171   -0.8392    3.3953 H         1 <0>         0.1018
     44 H18         6.0642   -1.3133    8.3023 H         1 <0>         0.0899
     45 H19         5.6815   -3.0633    8.2515 H         1 <0>         0.0837
     46 H20         7.0643   -2.0775   10.3544 H         1 <0>         0.0804
     47 H21         7.5805   -3.6321    9.6220 H         1 <0>         0.0740
     48 H22         8.7215   -0.8255    9.1389 H         1 <0>         0.0769
     49 H23         9.6102   -2.3395    9.4963 H         1 <0>         0.0790
     50 H24         9.4267   -3.1113    7.2985 H         1 <0>         0.0886
     51 H25         9.2320   -1.3751    6.9226 H         1 <0>         0.0830
     52 H26         7.4104   -4.6630    6.8620 H         1 <0>         0.4425
     53 H27        -1.3384   -4.9128    0.9048 H         1 <0>         0.4651
@<TRIPOS>BOND
     1    1    2 1
     2    1   28 1
     3    1   29 1
     4    1   30 1
     5    2    3 1
     6    2    4 1
     7    2   10 1
     8    4    5 1
     9    4   31 1
    10    4   32 1
    11    5    9 1
    12    5    6 1
    13    6    7 2
    14    6   33 1
    15    7    8 1
    16    7   34 1
    17    8    9 2
    18    8   53 1
    19    9   35 1
    20   10   11 am
    21   10   36 1
    22   11   12 2
    23   11   13 am
    24   13   14 1
    25   13   37 1
    26   14   15 1
    27   14   38 1
    28   14   39 1
    29   15   16 1
    30   15   40 1
    31   15   41 1
    32   16   17 1
    33   16   42 1
    34   16   43 1
    35   17   26 am
    36   17   18 am
    37   18   19 2
    38   18   20 1
    39   20   24 1
    40   20   21 1
    41   20   25 1
    42   21   22 1
    43   21   44 1
    44   21   45 1
    45   22   23 1
    46   22   46 1
    47   22   47 1
    48   23   24 1
    49   23   48 1
    50   23   49 1
    51   24   50 1
    52   24   51 1
    53   25   26 am
    54   25   52 1
    55   26   27 2
@<TRIPOS>MOLECULE
ZINC61635547
   47    48     0     0     0
SMALL
USER_CHARGES

@<TRIPOS>ATOM
      1 C1         -0.0178    1.4648    0.0101 C.3       1 <0>        -0.0559
      2 N1          0.0021   -0.0041    0.0020 N.4       1 <0>        -0.3845
      3 C2         -1.3761   -0.5125    0.0124 C.3       1 <0>        -0.0460
      4 C3          0.6897   -0.4778   -1.2066 C.3       1 <0>        -0.0264
      5 C4          2.1588   -0.0534   -1.1571 C.3       1 <0>         0.1275
      6 N2          2.8445   -0.5258   -2.3624 N.pl3     1 <0>        -0.3918
      7 C5          3.5526    0.2409   -3.2317 C.2       1 <0>         0.0171
      8 C6          4.0247   -0.5762   -4.2078 C.2       1 <0>         0.0283
      9 C7          3.5909   -1.8796   -3.9241 C.2       1 <0>         0.0752
     10 N3          2.8910   -1.8491   -2.8192 N.2       1 <0>        -0.2850
     11 N4          4.8093   -0.1850   -5.3085 N.am      1 <0>        -0.6480
     12 C8          5.2130   -1.1033   -6.2086 C.2       1 <0>         0.5709
     13 O1          4.8992   -2.2700   -6.0695 O.2       1 <0>        -0.4981
     14 C9          6.0355   -0.6932   -7.3625 C.ar      1 <0>        -0.1968
     15 C10         6.4031    0.6451   -7.5231 C.ar      1 <0>         0.0540
     16 C11         7.1715    1.0216   -8.6031 C.ar      1 <0>        -0.7230
     17 C12         7.5814    0.0790   -9.5319 C.ar      1 <0>         0.0530
     18 C13         7.2253   -1.2468   -9.3854 C.ar      1 <0>        -0.2345
     19 C14         6.4575   -1.6447   -8.3009 C.ar      1 <0>         0.2470
     20 O2          6.1115   -2.9480   -8.1526 O.3       1 <0>        -0.2728
     21 C15         6.5780   -3.8605   -9.1485 C.3       1 <0>         0.0132
     22 S1          7.6342    2.7099   -8.8041 S.o2      1 <0>         2.7063
     23 O3          7.8967    2.8970  -10.1880 O.2       1 <0>        -0.9562
     24 O4          6.6708    3.4816   -8.1003 O.2       1 <0>        -0.9637
     25 N5          9.0757    2.9196   -8.0164 N.pl3     1 <0>        -1.2497
     26 H1          1.0047    1.8421    0.0024 H         1 <0>         0.1231
     27 H2         -0.5450    1.8259   -0.8730 H         1 <0>         0.1251
     28 H3         -0.5280    1.8163    0.9069 H         1 <0>         0.1296
     29 H4         -1.9033   -0.1515   -0.8706 H         1 <0>         0.1232
     30 H5         -1.3613   -1.6024    0.0065 H         1 <0>         0.1259
     31 H6         -1.8863   -0.1610    0.9092 H         1 <0>         0.1283
     32 H7          0.6270   -1.5648   -1.2578 H         1 <0>         0.1454
     33 H8          0.2158   -0.0447   -2.0875 H         1 <0>         0.1362
     34 H9          2.2214    1.0336   -1.1059 H         1 <0>         0.1150
     35 H10         2.6326   -0.4865   -0.2761 H         1 <0>         0.1040
     36 H11         3.7110    1.3067   -3.1597 H         1 <0>         0.1843
     37 H12         3.8023   -2.7588   -4.5146 H         1 <0>         0.2146
     38 H13         5.0596    0.7455   -5.4194 H         1 <0>         0.4127
     39 H14         6.0852    1.3834   -6.8019 H         1 <0>         0.1497
     40 H15         8.1829    0.3831  -10.3758 H         1 <0>         0.1559
     41 H16         7.5484   -1.9758  -10.1138 H         1 <0>         0.1527
     42 H17         6.1906   -3.5637  -10.1232 H         1 <0>         0.0657
     43 H18         7.6676   -3.8475   -9.1712 H         1 <0>         0.0656
     44 H19         6.2314   -4.8662   -8.9106 H         1 <0>         0.1125
     45 H20         9.4933    2.1713   -7.5617 H         1 <0>         0.4173
     46 H21         9.5025    3.7906   -8.0097 H         1 <0>         0.4238
     47 H22         0.4901   -0.3383    0.8195 H         1 <0>         0.4296
@<TRIPOS>BOND
     1    1    2 1
     2    1   26 1
     3    1   27 1
     4    1   28 1
     5    2    3 1
     6    2    4 1
     7    2   47 1
     8    3   29 1
     9    3   30 1
    10    3   31 1
    11    4    5 1
    12    4   32 1
    13    4   33 1
    14    5    6 1
    15    5   34 1
    16    5   35 1
    17    6   10 1
    18    6    7 1
    19    7    8 2
    20    7   36 1
    21    8    9 1
    22    8   11 1
    23    9   10 2
    24    9   37 1
    25   11   12 am
    26   11   38 1
    27   12   13 2
    28   12   14 1
    29   14   19 ar
    30   14   15 ar
    31   15   16 ar
    32   15   39 1
    33   16   17 ar
    34   16   22 1
    35   17   18 ar
    36   17   40 1
    37   18   19 ar
    38   18   41 1
    39   19   20 1
    40   20   21 1
    41   21   42 1
    42   21   43 1
    43   21   44 1
    44   22   23 2
    45   22   24 2
    46   22   25 1
    47   25   45 1
    48   25   46 1
@<TRIPOS>MOLECULE
ZINC48333841
   42    43     0     0     0
SMALL
USER_CHARGES

@<TRIPOS>ATOM
      1 C1         -0.0187    1.5258    0.0104 C.3       1 <0>        -0.1686
      2 C2          0.0021   -0.0041    0.0020 C.3       1 <0>         0.1449
      3 H1         -1.0205   -0.3814    0.0098 H         1 <0>         0.1072
      4 C3          0.7421   -0.5109    1.2415 C.3       1 <0>         0.0828
      5 N1          0.6591   -1.9725    1.2962 N.pl3     1 <0>        -0.4049
      6 C4         -0.3202   -2.7082    1.9072 C.2       1 <0>         0.0288
      7 C5         -0.0102   -4.0047    1.7160 C.2       1 <0>         0.0054
      8 N2          1.1273   -4.0592    1.0075 N.pl3     1 <0>        -0.4736
      9 C6          1.5314   -2.8457    0.7481 C.cat     1 <0>         0.2840
     10 N3          0.6878   -0.4765   -1.2033 N.am      1 <0>        -0.7547
     11 C7          0.0062   -0.6081   -2.3585 C.2       1 <0>         0.7053
     12 O1         -1.1778   -0.3348   -2.4004 O.2       1 <0>        -0.5740
     13 N4          0.6370   -1.0428   -3.4674 N.am      1 <0>        -0.7359
     14 C8         -0.1039   -1.1859   -4.7231 C.3       1 <0>         0.1103
     15 C9          0.8390   -1.6915   -5.8168 C.3       1 <0>         0.1462
     16 H2          1.6982   -1.0250   -5.8926 H         1 <0>         0.1222
     17 C10         0.1090   -1.7219   -7.1349 C.ar      1 <0>        -0.1736
     18 C11        -0.4919   -2.8900   -7.5651 C.ar      1 <0>        -0.0500
     19 C12        -1.1620   -2.9193   -8.7732 C.ar      1 <0>        -0.1578
     20 C13        -1.2319   -1.7780   -9.5547 C.ar      1 <0>         0.1432
     21 C14        -0.6306   -0.6078   -9.1250 C.ar      1 <0>        -0.1878
     22 C15         0.0356   -0.5782   -7.9118 C.ar      1 <0>         0.1449
     23 F1          0.6182    0.5648   -7.4884 F         1 <0>        -0.1252
     24 F2         -1.8863   -1.8071  -10.7362 F         1 <0>        -0.1232
     25 O2          1.2856   -3.0088   -5.4892 O.3       1 <0>        -0.5469
     26 H3          1.0039    1.9031    0.0027 H         1 <0>         0.0684
     27 H4         -0.5459    1.8868   -0.8726 H         1 <0>         0.0814
     28 H5         -0.5289    1.8773    0.9072 H         1 <0>         0.0784
     29 H6          1.7879   -0.2080    1.1895 H         1 <0>         0.1284
     30 H7          0.2852   -0.0874    2.1360 H         1 <0>         0.1435
     31 H8         -1.1767   -2.3229    2.4405 H         1 <0>         0.2244
     32 H9         -0.5781   -4.8520    2.0709 H         1 <0>         0.2244
     33 H10         2.4179   -2.5833    0.1899 H         1 <0>         0.2550
     34 H11         1.6324   -0.6946   -1.1699 H         1 <0>         0.3928
     35 H12         1.5816   -1.2609   -3.4340 H         1 <0>         0.4012
     36 H13        -0.9168   -1.8989   -4.5861 H         1 <0>         0.0774
     37 H14        -0.5138   -0.2191   -5.0153 H         1 <0>         0.0837
     38 H15        -0.4373   -3.7807   -6.9566 H         1 <0>         0.1437
     39 H16        -1.6311   -3.8325   -9.1083 H         1 <0>         0.1495
     40 H17        -0.6846    0.2826   -9.7337 H         1 <0>         0.1553
     41 H18         0.5724   -3.6564   -5.4055 H         1 <0>         0.3783
     42 H19         1.5768   -4.8723    0.7287 H         1 <0>         0.4652
@<TRIPOS>BOND
     1    1    2 1
     2    1   26 1
     3    1   27 1
     4    1   28 1
     5    2    3 1
     6    2    4 1
     7    2   10 1
     8    4    5 1
     9    4   29 1
    10    4   30 1
    11    5    9 1
    12    5    6 1
    13    6    7 2
    14    6   31 1
    15    7    8 1
    16    7   32 1
    17    8    9 2
    18    8   42 1
    19    9   33 1
    20   10   11 am
    21   10   34 1
    22   11   12 2
    23   11   13 am
    24   13   14 1
    25   13   35 1
    26   14   15 1
    27   14   36 1
    28   14   37 1
    29   15   16 1
    30   15   17 1
    31   15   25 1
    32   17   22 ar
    33   17   18 ar
    34   18   19 ar
    35   18   38 1
    36   19   20 ar
    37   19   39 1
    38   20   21 ar
    39   20   24 1
    40   21   22 ar
    41   21   40 1
    42   22   23 1
    43   25   41 1
@<TRIPOS>MOLECULE
ZINC08706634
   53    56     0     0     0
SMALL
USER_CHARGES
N-[3-(5-amino-4-cyano-1H-pyrazol-3-yl)propyl]-3-(benzo[1,3]dioxol-5-ylsulfamoyl)benzamide
@<TRIPOS>ATOM
      1 C1          7.9758   -1.4934   -8.5452 C.ar      1 <0>        -0.1433
      2 C2          7.0582   -1.6583   -7.5280 C.ar      1 <0>        -0.0302
      3 C3          7.2880   -1.0707   -6.2832 C.ar      1 <0>        -0.1529
      4 C4          8.4514   -0.3286   -6.0726 C.ar      1 <0>         0.0435
      5 C5          9.3633   -0.1762   -7.0962 C.ar      1 <0>        -0.6842
      6 C6          9.1267   -0.7567   -8.3299 C.ar      1 <0>         0.0061
      7 S1         10.8325    0.7601   -6.8326 S.o2      1 <0>         2.6898
      8 O1         11.1922    1.3141   -8.0907 O.2       1 <0>        -0.9460
      9 O2         10.6009    1.5644   -5.6842 O.2       1 <0>        -0.9378
     10 N1         12.0292   -0.3103   -6.4271 N.pl3     1 <0>        -1.0564
     11 C7         11.9178   -1.0754   -5.2609 C.ar      1 <0>         0.1260
     12 C8         12.1432   -0.4899   -4.0221 C.ar      1 <0>        -0.0880
     13 C9         12.0283   -1.2431   -2.8692 C.ar      1 <0>        -0.0902
     14 C10        11.6985   -2.5864   -2.9463 C.ar      1 <0>         0.0471
     15 C11        11.4775   -3.1780   -4.1876 C.ar      1 <0>         0.0389
     16 C12        11.5876   -2.4212   -5.3425 C.ar      1 <0>        -0.0948
     17 O3         11.1711   -4.4943   -3.9955 O.3       1 <0>        -0.3059
     18 C13        11.6066   -4.7994   -2.6575 C.3       1 <0>         0.2126
     19 O4         11.5304   -3.5334   -1.9759 O.3       1 <0>        -0.3040
     20 C14         6.3064   -1.2386   -5.1904 C.2       1 <0>         0.5584
     21 O5          6.5116   -0.7298   -4.1057 O.2       1 <0>        -0.5240
     22 N2          5.1841   -1.9557   -5.3969 N.am      1 <0>        -0.7261
     23 C15         4.2115   -2.1221   -4.3141 C.3       1 <0>         0.1184
     24 C16         3.0388   -2.9717   -4.8080 C.3       1 <0>        -0.1250
     25 C17         2.0230   -3.1454   -3.6771 C.3       1 <0>        -0.0437
     26 C18         0.8680   -3.9822   -4.1635 C.2       1 <0>         0.1594
     27 C19         0.7757   -5.3914   -4.0889 C.2       1 <0>        -0.2618
     28 C20        -0.4475   -5.7494   -4.6492 C.2       1 <0>         0.4324
     29 N3         -1.0548   -4.6091   -5.0388 N.pl3     1 <0>        -0.4924
     30 H1         -1.9513   -4.5447   -5.4771 H         1 <0>         0.4518
     31 N4         -0.2184   -3.5322   -4.7260 N.2       1 <0>        -0.2857
     32 N5         -0.9460   -7.0314   -4.7815 N.pl3     1 <0>        -0.8371
     33 C21         1.7549   -6.2814   -3.5414 C.1       1 <0>         0.2922
     34 N6          2.5316   -6.9874   -3.1070 N.1       1 <0>        -0.4417
     35 H2          7.7970   -1.9439   -9.5104 H         1 <0>         0.1429
     36 H3          6.1620   -2.2371   -7.6961 H         1 <0>         0.1354
     37 H4          8.6369    0.1256   -5.1105 H         1 <0>         0.1559
     38 H5          9.8439   -0.6344   -9.1281 H         1 <0>         0.1464
     39 H6         12.8073   -0.4069   -6.9981 H         1 <0>         0.4286
     40 H7         12.4045    0.5561   -3.9593 H         1 <0>         0.1535
     41 H8         12.1993   -0.7845   -1.9064 H         1 <0>         0.1469
     42 H9         11.4169   -2.8781   -6.3061 H         1 <0>         0.1414
     43 H10        12.6316   -5.1701   -2.6635 H         1 <0>         0.0883
     44 H11        10.9386   -5.5251   -2.1934 H         1 <0>         0.1346
     45 H12         5.0204   -2.3617   -6.2625 H         1 <0>         0.3998
     46 H13         3.8453   -1.1442   -4.0012 H         1 <0>         0.0764
     47 H14         4.6894   -2.6184   -3.4695 H         1 <0>         0.0739
     48 H15         3.4049   -3.9495   -5.1208 H         1 <0>         0.0739
     49 H16         2.5609   -2.4754   -5.6526 H         1 <0>         0.0785
     50 H17         1.6568   -2.1676   -3.3642 H         1 <0>         0.0950
     51 H18         2.5009   -3.6417   -2.8325 H         1 <0>         0.0904
     52 H19        -1.8145   -7.1744   -5.1891 H         1 <0>         0.4099
     53 H20        -0.4274   -7.7883   -4.4667 H         1 <0>         0.4229
@<TRIPOS>BOND
     1    1    6 ar
     2    1    2 ar
     3    1   35 1
     4    2    3 ar
     5    2   36 1
     6    3    4 ar
     7    3   20 1
     8    4    5 ar
     9    4   37 1
    10    5    6 ar
    11    5    7 1
    12    6   38 1
    13    7    8 2
    14    7    9 2
    15    7   10 1
    16   10   11 1
    17   10   39 1
    18   11   16 ar
    19   11   12 ar
    20   12   13 ar
    21   12   40 1
    22   13   14 ar
    23   13   41 1
    24   14   19 1
    25   14   15 ar
    26   15   16 ar
    27   15   17 1
    28   16   42 1
    29   17   18 1
    30   18   19 1
    31   18   43 1
    32   18   44 1
    33   20   21 2
    34   20   22 am
    35   22   23 1
    36   22   45 1
    37   23   24 1
    38   23   46 1
    39   23   47 1
    40   24   25 1
    41   24   48 1
    42   24   49 1
    43   25   26 1
    44   25   50 1
    45   25   51 1
    46   26   31 2
    47   26   27 1
    48   27   28 2
    49   27   33 1
    50   28   29 1
    51   28   32 1
    52   29   30 1
    53   29   31 1
    54   32   52 1
    55   32   53 1
    56   33   34 3
@<TRIPOS>MOLECULE
ZINC12636393
   68    71     0     0     0
SMALL
USER_CHARGES
N-[(2R,3S,4R,5R,6R)-4,5-dihydroxy-6-(hydroxymethyl)-2-[[5-methyl-1-[2-(4-methylphenoxy)ethyl]-2-oxo-indolin-3-ylidene]amino]oxy-tetrahydropyran-3-yl]acetamide
@<TRIPOS>ATOM
      1 C1         -2.8564   -0.8000  -11.8618 C.3       1 <0>        -0.1119
      2 C2         -2.0699   -1.3922  -10.7208 C.ar      1 <0>        -0.1228
      3 C3         -0.8162   -0.8954  -10.4157 C.ar      1 <0>        -0.0812
      4 C4         -0.0932   -1.4365   -9.3703 C.ar      1 <0>        -0.1449
      5 C5         -0.6260   -2.4792   -8.6264 C.ar      1 <0>         0.1238
      6 C6         -1.8818   -2.9797   -8.9382 C.ar      1 <0>        -0.2046
      7 C7         -2.6030   -2.4317   -9.9812 C.ar      1 <0>        -0.0805
      8 O1          0.0832   -3.0132   -7.5974 O.3       1 <0>        -0.3096
      9 C8         -0.5277   -4.0843   -6.8753 C.3       1 <0>         0.0376
     10 C9          0.4134   -4.5517   -5.7632 C.3       1 <0>         0.1195
     11 N1          0.5871   -3.4746   -4.7856 N.am      1 <0>        -0.5378
     12 C10         1.5809   -2.5031   -4.8591 C.ar      1 <0>         0.1710
     13 C11         2.5956   -2.2915   -5.7860 C.ar      1 <0>        -0.1196
     14 C12         3.4688   -1.2338   -5.6289 C.ar      1 <0>        -0.0639
     15 C13         3.3470   -0.3732   -4.5513 C.ar      1 <0>        -0.1110
     16 C14         2.3452   -0.5675   -3.6209 C.ar      1 <0>        -0.0332
     17 C15         1.4576   -1.6262   -3.7742 C.ar      1 <0>        -0.1530
     18 C16         0.3060   -2.1077   -2.9741 C.2       1 <0>         0.1232
     19 N2         -0.1672   -1.5945   -1.8748 N.2       1 <0>        -0.2205
     20 O2          0.4384   -0.4448   -1.3122 O.3       1 <0>        -0.2283
     21 C17        -0.1831    0.0093   -0.1082 C.3       1 <0>         0.2504
     22 H1         -1.2438   -0.2409   -0.1297 H         1 <0>         0.1332
     23 C18        -0.0187    1.5267    0.0104 C.3       1 <0>         0.1429
     24 H2         -0.4494    2.0094   -0.8668 H         1 <0>         0.1140
     25 C19         1.4725    1.8654    0.1007 C.3       1 <0>         0.1040
     26 H3          1.9725    1.5576   -0.8176 H         1 <0>         0.0799
     27 C20         2.0829    1.1197    1.2914 C.3       1 <0>         0.0505
     28 H4          3.1553    1.3113    1.3302 H         1 <0>         0.0717
     29 C21         1.8374   -0.3821    1.1233 C.3       1 <0>         0.0571
     30 H5          2.3378   -0.7335    0.2210 H         1 <0>         0.0813
     31 O3          0.4332   -0.6245    1.0146 O.3       1 <0>        -0.3524
     32 C22         2.3916   -1.1291    2.3381 C.3       1 <0>         0.0824
     33 O4          2.2663   -2.5372    2.1293 O.3       1 <0>        -0.5597
     34 O5          1.4731    1.5707    2.5024 O.3       1 <0>        -0.5352
     35 O6          1.6326    3.2733    0.2854 O.3       1 <0>        -0.5282
     36 N3         -0.7022    2.0004    1.2165 N.am      1 <0>        -0.6976
     37 C23        -1.1989    3.2525    1.2618 C.2       1 <0>         0.5217
     38 O7         -1.0799    3.9871    0.3041 O.2       1 <0>        -0.5350
     39 C24        -1.9020    3.7398    2.5024 C.3       1 <0>        -0.1678
     40 C25        -0.1935   -3.3004   -3.7055 C.2       1 <0>         0.5887
     41 O8         -1.1383   -3.9945   -3.3845 O.2       1 <0>        -0.4636
     42 C26         4.3082    0.7768   -4.3938 C.3       1 <0>        -0.1114
     43 H6         -2.6206   -1.3348  -12.7818 H         1 <0>         0.0689
     44 H7         -3.9225   -0.8890  -11.6529 H         1 <0>         0.0650
     45 H8         -2.5950    0.2520  -11.9759 H         1 <0>         0.0658
     46 H9         -0.4019   -0.0834  -10.9949 H         1 <0>         0.1291
     47 H10         0.8862   -1.0483   -9.1325 H         1 <0>         0.1302
     48 H11        -2.2969   -3.7944   -8.3634 H         1 <0>         0.1264
     49 H12        -3.5822   -2.8184  -10.2220 H         1 <0>         0.1245
     50 H13        -0.7275   -4.9130   -7.5545 H         1 <0>         0.0842
     51 H14        -1.4645   -3.7395   -6.4374 H         1 <0>         0.0707
     52 H15         1.3809   -4.8128   -6.1919 H         1 <0>         0.1069
     53 H16        -0.0129   -5.4251   -5.2697 H         1 <0>         0.1197
     54 H17         2.7005   -2.9558   -6.6310 H         1 <0>         0.1350
     55 H18         4.2544   -1.0765   -6.3531 H         1 <0>         0.1358
     56 H19         2.2488    0.1033   -2.7800 H         1 <0>         0.1302
     57 H20         3.4427   -0.8739    2.4730 H         1 <0>         0.0627
     58 H21         1.8310   -0.8423    3.2278 H         1 <0>         0.0587
     59 H22         2.5986   -3.0744    2.8614 H         1 <0>         0.3836
     60 H23         1.8099    1.1361    3.2980 H         1 <0>         0.3724
     61 H24         2.5540    3.5591    0.3510 H         1 <0>         0.3746
     62 H25        -0.7974    1.4129    1.9825 H         1 <0>         0.4073
     63 H26        -1.1769    4.1987    3.1745 H         1 <0>         0.0932
     64 H27        -2.6578    4.4752    2.2266 H         1 <0>         0.0906
     65 H28        -2.3799    2.8980    3.0035 H         1 <0>         0.0767
     66 H29         3.9123    1.6539   -4.9058 H         1 <0>         0.0732
     67 H30         4.4359    1.0011   -3.3348 H         1 <0>         0.0654
     68 H31         5.2714    0.5072   -4.8268 H         1 <0>         0.0701
@<TRIPOS>BOND
     1    1    2 1
     2    1   43 1
     3    1   44 1
     4    1   45 1
     5    2    7 ar
     6    2    3 ar
     7    3    4 ar
     8    3   46 1
     9    4    5 ar
    10    4   47 1
    11    5    6 ar
    12    5    8 1
    13    6    7 ar
    14    6   48 1
    15    7   49 1
    16    8    9 1
    17    9   10 1
    18    9   50 1
    19    9   51 1
    20   10   11 1
    21   10   52 1
    22   10   53 1
    23   11   40 am
    24   11   12 1
    25   12   17 ar
    26   12   13 ar
    27   13   14 ar
    28   13   54 1
    29   14   15 ar
    30   14   55 1
    31   15   16 ar
    32   15   42 1
    33   16   17 ar
    34   16   56 1
    35   17   18 1
    36   18   19 2
    37   18   40 1
    38   19   20 1
    39   20   21 1
    40   21   22 1
    41   21   31 1
    42   21   23 1
    43   23   24 1
    44   23   25 1
    45   23   36 1
    46   25   26 1
    47   25   27 1
    48   25   35 1
    49   27   28 1
    50   27   29 1
    51   27   34 1
    52   29   30 1
    53   29   31 1
    54   29   32 1
    55   32   33 1
    56   32   57 1
    57   32   58 1
    58   33   59 1
    59   34   60 1
    60   35   61 1
    61   36   37 am
    62   36   62 1
    63   37   38 2
    64   37   39 1
    65   39   63 1
    66   39   64 1
    67   39   65 1
    68   40   41 2
    69   42   66 1
    70   42   67 1
    71   42   68 1
@<TRIPOS>MOLECULE
ZINC20922664
   47    49     0     0     0
SMALL
USER_CHARGES
2-[(4-amino-5-hydrazino-1,2,4-triazol-3-yl)sulfanyl]-N-[4-[(3-chlorophenyl)sulfamoyl]phenyl]acetamide
@<TRIPOS>ATOM
      1 C1         -8.8809   -6.4605    2.4101 C.ar      1 <0>        -0.0971
      2 C2         -8.4065   -7.5332    1.6805 C.ar      1 <0>        -0.1023
      3 C3         -7.1211   -8.0099    1.9041 C.ar      1 <0>         0.1415
      4 C4         -6.3183   -7.4095    2.8656 C.ar      1 <0>        -0.1063
      5 C5         -6.7965   -6.3330    3.5884 C.ar      1 <0>        -0.0305
      6 C6         -8.0781   -5.8609    3.3626 C.ar      1 <0>        -0.1025
      7 Cl1        -5.7920   -5.5769    4.7855 Cl        1 <0>        -0.0628
      8 N1         -6.6390   -9.0943    1.1677 N.pl3     1 <0>        -1.0772
      9 S1         -6.1899   -8.8878   -0.4128 S.o2      1 <0>         2.6932
     10 O1         -7.2696   -8.2273   -1.0588 O.2       1 <0>        -0.9485
     11 O2         -5.6862  -10.1394   -0.8588 O.2       1 <0>        -0.9515
     12 C7         -4.8321   -7.7649   -0.4262 C.ar      1 <0>        -0.6936
     13 C8         -3.5367   -8.2487   -0.4350 C.ar      1 <0>         0.0023
     14 C9         -2.4703   -7.3712   -0.4455 C.ar      1 <0>        -0.1450
     15 C10        -2.7000   -6.0016   -0.4471 C.ar      1 <0>         0.2107
     16 C11        -4.0021   -5.5189   -0.4324 C.ar      1 <0>        -0.1630
     17 C12        -5.0642   -6.4017   -0.4273 C.ar      1 <0>         0.0049
     18 N2         -1.6218   -5.1098   -0.4577 N.am      1 <0>        -0.6827
     19 C13        -0.5009   -5.4158   -1.1408 C.2       1 <0>         0.5410
     20 O3         -0.3933   -6.4992   -1.6755 O.2       1 <0>        -0.5005
     21 C14         0.6186   -4.4119   -1.2403 C.3       1 <0>        -0.1457
     22 S2          1.9765   -5.1152   -2.2159 S.3       1 <0>         0.0727
     23 C15         3.1902   -3.8381   -2.2398 C.2       1 <0>         0.1694
     24 N3          3.0851   -2.6641   -1.6661 N.2       1 <0>        -0.3041
     25 N4          4.2627   -1.9500   -1.9229 N.2       1 <0>        -0.3368
     26 C16         5.0484   -2.7106   -2.6447 C.2       1 <0>         0.4847
     27 N5          4.4069   -3.8973   -2.8598 N.pl3     1 <0>        -0.2659
     28 N6          4.8975   -4.9589   -3.5656 N.3       1 <0>        -0.7785
     29 N7          6.3123   -2.3700   -3.1094 N.pl3     1 <0>        -0.5795
     30 N8          6.8387   -1.1431   -2.8203 N.3       1 <0>        -0.5545
     31 H1         -9.8804   -6.0900    2.2366 H         1 <0>         0.1413
     32 H2         -9.0346   -8.0011    0.9369 H         1 <0>         0.1424
     33 H3         -5.3200   -7.7806    3.0451 H         1 <0>         0.1391
     34 H4         -8.4517   -5.0226    3.9319 H         1 <0>         0.1385
     35 H5         -6.5576  -10.0856    1.6376 H         1 <0>         0.4550
     36 H6         -3.3588   -9.3139   -0.4341 H         1 <0>         0.1455
     37 H7         -1.4588   -7.7496   -0.4527 H         1 <0>         0.1495
     38 H8         -4.1839   -4.4543   -0.4292 H         1 <0>         0.1383
     39 H9         -6.0771   -6.0269   -0.4200 H         1 <0>         0.1413
     40 H10        -1.6890   -4.1590    0.0914 H         1 <0>         0.4464
     41 H11         0.2497   -3.4987   -1.7303 H         1 <0>         0.1343
     42 H12         0.9812   -4.1658   -0.2314 H         1 <0>         0.1345
     43 H13         5.8946   -4.8995   -4.0263 H         1 <0>         0.4366
     44 H14         4.2955   -5.8732   -3.6733 H         1 <0>         0.4478
     45 H15         6.8893   -3.0883   -3.7103 H         1 <0>         0.4251
     46 H16         7.8389   -1.0580   -3.2701 H         1 <0>         0.3586
     47 H17         6.1851   -0.3582   -3.2286 H         1 <0>         0.3337
@<TRIPOS>BOND
     1    1    6 ar
     2    1    2 ar
     3    1   31 1
     4    2    3 ar
     5    2   32 1
     6    3    4 ar
     7    3    8 1
     8    4    5 ar
     9    4   33 1
    10    5    6 ar
    11    5    7 1
    12    6   34 1
    13    8    9 1
    14    8   35 1
    15    9   10 2
    16    9   11 2
    17    9   12 1
    18   12   17 ar
    19   12   13 ar
    20   13   14 ar
    21   13   36 1
    22   14   15 ar
    23   14   37 1
    24   15   16 ar
    25   15   18 1
    26   16   17 ar
    27   16   38 1
    28   17   39 1
    29   18   19 am
    30   18   40 1
    31   19   20 2
    32   19   21 1
    33   21   22 1
    34   21   41 1
    35   21   42 1
    36   22   23 1
    37   23   27 1
    38   23   24 2
    39   24   25 1
    40   25   26 2
    41   26   27 1
    42   26   29 1
    43   27   28 1
    44   28   43 1
    45   28   44 1
    46   29   30 1
    47   29   45 1
    48   30   46 1
    49   30   47 1
@<TRIPOS>MOLECULE
ZINC37246748
   65    66     0     0     0
SMALL
USER_CHARGES

@<TRIPOS>ATOM
      1 C1         -0.0187    1.5258    0.0104 C.3       1 <0>        -0.1177
      2 C2          0.0021   -0.0041    0.0020 C.3       1 <0>         0.0676
      3 O1         -1.3386   -0.4987    0.0122 O.3       1 <0>        -0.3844
      4 C3         -1.4321   -1.9246    0.0054 C.3       1 <0>         0.0676
      5 C4         -2.9048   -2.3392    0.0172 C.3       1 <0>        -0.1178
      6 C5         -3.0049   -3.8659    0.0100 C.3       1 <0>         0.0666
      7 O2         -4.3804   -4.2531    0.0210 O.3       1 <0>        -0.3625
      8 C6         -4.5862   -5.6672    0.0154 C.3       1 <0>         0.2302
      9 H1         -3.9924   -6.1178   -0.7799 H         1 <0>         0.0616
     10 C7         -6.0686   -5.9664   -0.2221 C.3       1 <0>         0.0610
     11 H2         -6.6663   -5.4821    0.5501 H         1 <0>         0.0892
     12 C8         -6.2911   -7.4810   -0.1668 C.3       1 <0>         0.0852
     13 H3         -5.7324   -7.9611   -0.9702 H         1 <0>         0.0745
     14 C9         -5.8007   -8.0090    1.1849 C.3       1 <0>         0.0875
     15 H4         -5.9042   -9.0937    1.2115 H         1 <0>         0.0854
     16 C10        -4.3286   -7.6308    1.3681 C.3       1 <0>         0.1106
     17 H5         -3.7315   -8.1073    0.5906 H         1 <0>         0.0843
     18 O3         -4.1873   -6.2119    1.2749 O.3       1 <0>        -0.3750
     19 C11        -3.8477   -8.1026    2.7418 C.3       1 <0>         0.0886
     20 O4         -2.4460   -7.8543    2.8669 O.3       1 <0>        -0.5689
     21 O5         -6.5781   -7.4292    2.2345 O.3       1 <0>        -0.5458
     22 O6         -7.6834   -7.7655   -0.3165 O.3       1 <0>        -0.5558
     23 O7         -6.4559   -5.4722   -1.5058 O.3       1 <0>        -0.5605
     24 C12         1.4167    2.0553   -0.0004 C.3       1 <0>         0.0676
     25 O8          1.3973    3.4842    0.0074 O.3       1 <0>        -0.3618
     26 C13         2.6947    4.0831   -0.0017 C.3       1 <0>         0.2265
     27 H6          3.3091    3.6316    0.7772 H         1 <0>         0.0575
     28 C14         2.5650    5.5863    0.2576 C.3       1 <0>         0.0650
     29 H7          2.1378    5.7497    1.2471 H         1 <0>         0.0694
     30 C15         3.9529    6.2305    0.1866 C.3       1 <0>         0.0784
     31 H8          4.5857    5.8208    0.9738 H         1 <0>         0.0782
     32 C16         4.5747    5.9280   -1.1802 C.3       1 <0>         0.0908
     33 H9          5.5848    6.3357   -1.2192 H         1 <0>         0.0732
     34 C17         4.6268    4.4116   -1.3841 C.3       1 <0>         0.1132
     35 H10         5.2666    3.9644   -0.6233 H         1 <0>         0.0786
     36 O9          3.3082    3.8718   -1.2750 O.3       1 <0>        -0.3696
     37 C18         5.1917    4.1025   -2.7720 C.3       1 <0>         0.0891
     38 O10         5.3494    2.6898   -2.9183 O.3       1 <0>        -0.5700
     39 O11         3.7799    6.5222   -2.2085 O.3       1 <0>        -0.5287
     40 O12         3.8330    7.6443    0.3568 O.3       1 <0>        -0.5480
     41 O13         1.7150    6.1700   -0.7318 O.3       1 <0>        -0.5232
     42 H11        -0.5459    1.8868   -0.8726 H         1 <0>         0.0826
     43 H12        -0.5289    1.8773    0.9072 H         1 <0>         0.0798
     44 H13         0.5123   -0.3556   -0.8948 H         1 <0>         0.0537
     45 H14         0.5293   -0.3651    0.8851 H         1 <0>         0.0520
     46 H15        -0.9516   -2.3160   -0.8913 H         1 <0>         0.0524
     47 H16        -0.9346   -2.3255    0.8885 H         1 <0>         0.0534
     48 H17        -3.3852   -1.9478    0.9140 H         1 <0>         0.0821
     49 H18        -3.4022   -1.9383   -0.8659 H         1 <0>         0.0805
     50 H19        -2.5244   -4.2573   -0.8867 H         1 <0>         0.0535
     51 H20        -2.5074   -4.2668    0.8931 H         1 <0>         0.0659
     52 H21        -4.3838   -7.5600    3.5205 H         1 <0>         0.0695
     53 H22        -4.0383   -9.1708    2.8463 H         1 <0>         0.0656
     54 H23        -2.0721   -8.1292    3.7153 H         1 <0>         0.3847
     55 H24        -7.5234   -7.6251    2.1780 H         1 <0>         0.3891
     56 H25        -8.0615   -7.4524   -1.1497 H         1 <0>         0.3955
     57 H26        -6.3371   -4.5185   -1.6123 H         1 <0>         0.3943
     58 H27         1.9439    1.6943    0.8826 H         1 <0>         0.0523
     59 H28         1.9269    1.7038   -0.8972 H         1 <0>         0.0659
     60 H29         4.5058    4.4724   -3.5341 H         1 <0>         0.0697
     61 H30         6.1598    4.5899   -2.8870 H         1 <0>         0.0636
     62 H31         5.7043    2.4204   -3.7765 H         1 <0>         0.3838
     63 H32         3.7004    7.4834   -2.1382 H         1 <0>         0.3847
     64 H33         3.4401    7.9069    1.2004 H         1 <0>         0.3864
     65 H34         0.8196    5.8050   -0.7460 H         1 <0>         0.3817
@<TRIPOS>BOND
     1    1    2 1
     2    1   24 1
     3    1   42 1
     4    1   43 1
     5    2    3 1
     6    2   44 1
     7    2   45 1
     8    3    4 1
     9    4    5 1
    10    4   46 1
    11    4   47 1
    12    5    6 1
    13    5   48 1
    14    5   49 1
    15    6    7 1
    16    6   50 1
    17    6   51 1
    18    7    8 1
    19    8    9 1
    20    8   18 1
    21    8   10 1
    22   10   11 1
    23   10   12 1
    24   10   23 1
    25   12   13 1
    26   12   14 1
    27   12   22 1
    28   14   15 1
    29   14   16 1
    30   14   21 1
    31   16   17 1
    32   16   18 1
    33   16   19 1
    34   19   20 1
    35   19   52 1
    36   19   53 1
    37   20   54 1
    38   21   55 1
    39   22   56 1
    40   23   57 1
    41   24   25 1
    42   24   58 1
    43   24   59 1
    44   25   26 1
    45   26   27 1
    46   26   36 1
    47   26   28 1
    48   28   29 1
    49   28   30 1
    50   28   41 1
    51   30   31 1
    52   30   32 1
    53   30   40 1
    54   32   33 1
    55   32   34 1
    56   32   39 1
    57   34   35 1
    58   34   36 1
    59   34   37 1
    60   37   38 1
    61   37   60 1
    62   37   61 1
    63   38   62 1
    64   39   63 1
    65   40   64 1
    66   41   65 1
@<TRIPOS>MOLECULE
ZINC20292042
   51    54     0     0     0
SMALL
USER_CHARGES

@<TRIPOS>ATOM
      1 C1         -0.0160    1.3996   -0.0444 C.ar      1 <0>        -0.1025
      2 C2          1.1697    2.0996   -0.0623 C.ar      1 <0>        -0.0479
      3 C3          2.3789    1.4228   -0.0839 C.ar      1 <0>        -0.0063
      4 C4          2.4079    0.0373   -0.0878 C.ar      1 <0>        -0.0470
      5 C5          1.2329   -0.6806   -0.0707 C.ar      1 <0>        -0.0928
      6 C6          0.0029   -0.0042   -0.0482 C.ar      1 <0>         0.0301
      7 C7         -1.2526   -0.7582   -0.0294 C.2       1 <0>         0.0318
      8 N1         -1.2300   -2.0727   -0.0330 N.2       1 <0>        -0.1820
      9 N2         -2.3358   -2.7368   -0.0164 N.pl3     1 <0>        -0.4553
     10 C8         -2.3128   -4.0728   -0.0201 C.2       1 <0>         0.4486
     11 N3         -1.2127   -4.8531   -0.0343 N.2       1 <0>        -0.2630
     12 N4         -1.5631   -6.0905   -0.0337 N.2       1 <0>        -0.2578
     13 C9         -2.9107   -6.1795   -0.0189 C.2       1 <0>         0.0428
     14 N5         -3.4042   -4.9049   -0.0042 N.pl3     1 <0>        -0.3053
     15 N6         -4.7187   -4.5340    0.0185 N.3       1 <0>        -0.5862
     16 S1         -3.8033   -7.5791   -0.0127 S.3       1 <0>         0.1281
     17 C10        -2.5553   -8.8955   -0.0292 C.3       1 <0>        -0.1440
     18 C11        -3.2407  -10.2376   -0.0251 C.2       1 <0>         0.5357
     19 O1         -4.4520  -10.2999   -0.0122 O.2       1 <0>        -0.5009
     20 N7         -2.5078  -11.3686   -0.0356 N.am      1 <0>        -0.6602
     21 C12        -3.1407  -12.6144    0.0659 C.ar      1 <0>         0.1435
     22 C13        -2.5287  -13.6499    0.7595 C.ar      1 <0>        -0.1334
     23 C14        -3.1519  -14.8785    0.8591 C.ar      1 <0>        -0.0936
     24 C15        -4.3902  -15.0819    0.2680 C.ar      1 <0>         0.0399
     25 C16        -5.0065  -14.0465   -0.4249 C.ar      1 <0>         0.0696
     26 C17        -4.3821  -12.8124   -0.5217 C.ar      1 <0>        -0.1140
     27 O2         -6.2249  -14.2247   -1.0049 O.3       1 <0>        -0.3036
     28 C18        -6.6526  -15.5768   -1.2018 C.3       1 <0>         0.0198
     29 C19        -6.3903  -16.3573    0.0933 C.3       1 <0>         0.0199
     30 O3         -4.9875  -16.3014    0.3738 O.3       1 <0>        -0.3063
     31 N8          3.6477    2.1849   -0.1034 N.pl3     1 <0>        -0.0204
     32 O4          3.6251    3.5017   -0.1002 O.2       1 <0>        -0.1703
     33 O5          4.7993    1.5461   -0.1240 O.3       1 <0>        -0.1688
     34 H1         -0.9572    1.9287   -0.0231 H         1 <0>         0.1545
     35 H2          1.1573    3.1795   -0.0597 H         1 <0>         0.1593
     36 H3          3.3552   -0.4812   -0.1048 H         1 <0>         0.1589
     37 H4          1.2576   -1.7603   -0.0745 H         1 <0>         0.1610
     38 H5         -2.1969   -0.2344   -0.0125 H         1 <0>         0.1327
     39 H6         -3.1839   -2.2663   -0.0013 H         1 <0>         0.4017
     40 H7         -5.0822   -4.4335   -0.9174 H         1 <0>         0.3702
     41 H8         -5.2702   -5.1891    0.5521 H         1 <0>         0.3861
     42 H9         -1.9420   -8.8035   -0.9256 H         1 <0>         0.1343
     43 H10        -1.9229   -8.8078    0.8542 H         1 <0>         0.1349
     44 H11        -1.5422  -11.3201   -0.1136 H         1 <0>         0.4185
     45 H12        -1.5647  -13.4947    1.2210 H         1 <0>         0.1386
     46 H13        -2.6738  -15.6830    1.3983 H         1 <0>         0.1419
     47 H14        -4.8603  -12.0060   -1.0578 H         1 <0>         0.1521
     48 H15        -7.7177  -15.5954   -1.4330 H         1 <0>         0.1244
     49 H16        -6.0902  -16.0245   -2.0212 H         1 <0>         0.0794
     50 H17        -6.9476  -15.9056    0.9139 H         1 <0>         0.0789
     51 H18        -6.6987  -17.3949   -0.0340 H         1 <0>         0.1242
@<TRIPOS>BOND
     1    1    6 ar
     2    1    2 ar
     3    1   34 1
     4    2    3 ar
     5    2   35 1
     6    3    4 ar
     7    3   31 1
     8    4    5 ar
     9    4   36 1
    10    5    6 ar
    11    5   37 1
    12    6    7 1
    13    7    8 2
    14    7   38 1
    15    8    9 1
    16    9   10 1
    17    9   39 1
    18   10   14 1
    19   10   11 2
    20   11   12 1
    21   12   13 2
    22   13   14 1
    23   13   16 1
    24   14   15 1
    25   15   40 1
    26   15   41 1
    27   16   17 1
    28   17   18 1
    29   17   42 1
    30   17   43 1
    31   18   19 2
    32   18   20 am
    33   20   21 1
    34   20   44 1
    35   21   26 ar
    36   21   22 ar
    37   22   23 ar
    38   22   45 1
    39   23   24 ar
    40   23   46 1
    41   24   30 1
    42   24   25 ar
    43   25   26 ar
    44   25   27 1
    45   26   47 1
    46   27   28 1
    47   28   29 1
    48   28   48 1
    49   28   49 1
    50   29   30 1
    51   29   50 1
    52   29   51 1
    53   31   32 2
    54   31   33 1
@<TRIPOS>MOLECULE
ZINC06761883
   47    48     0     0     0
SMALL
USER_CHARGES
N-[2-[(5-bromo-2-hydroxy-phenyl)methylamino]ethyl]-3,4-dimethoxy-benzamide
@<TRIPOS>ATOM
      1 C1         11.9730    9.0798   -3.0006 C.3       1 <0>         0.0213
      2 O1         11.4915    8.5498   -4.2372 O.3       1 <0>        -0.2966
      3 C2         10.3242    7.8570   -4.1982 C.ar      1 <0>         0.1412
      4 C3          9.6571    7.6912   -2.9919 C.ar      1 <0>        -0.1847
      5 C4          8.4699    6.9932   -2.9478 C.ar      1 <0>        -0.0765
      6 C5          7.9403    6.4412   -4.1168 C.ar      1 <0>        -0.1509
      7 C6          8.6115    6.6079   -5.3310 C.ar      1 <0>        -0.1112
      8 C7          9.7985    7.3134   -5.3692 C.ar      1 <0>         0.0965
      9 O2         10.4546    7.4771   -6.5492 O.3       1 <0>        -0.3002
     10 C8          9.8587    6.8929   -7.7093 C.3       1 <0>         0.0222
     11 C9          6.6712    5.6888   -4.0704 C.2       1 <0>         0.5763
     12 O3          6.2089    5.2132   -5.0894 O.2       1 <0>        -0.5230
     13 N1          6.0251    5.5288   -2.8985 N.am      1 <0>        -0.7326
     14 C10         4.7656    4.7820   -2.8525 C.3       1 <0>         0.0952
     15 C11         4.2445    4.7489   -1.4144 C.3       1 <0>        -0.0184
     16 C12         2.4504    3.9475    0.0004 C.3       1 <0>         0.0562
     17 C13         1.1576    3.1732    0.0081 C.ar      1 <0>        -0.1892
     18 C14        -0.0500    3.8443    0.0233 C.ar      1 <0>        -0.0455
     19 C15        -1.2370    3.1340    0.0303 C.ar      1 <0>        -0.1026
     20 C16        -1.2177    1.7506    0.0173 C.ar      1 <0>        -0.0380
     21 C17        -0.0126    1.0758    0.0080 C.ar      1 <0>        -0.1309
     22 C18         1.1792    1.7863    0.0004 C.ar      1 <0>         0.1452
     23 O4          2.3661    1.1243   -0.0150 O.3       1 <0>        -0.4891
     24 Br1        -2.8883    4.0552    0.0499 Br        1 <0>        -0.0120
     25 H1         12.1397    8.2647   -2.2963 H         1 <0>         0.0601
     26 H2         12.9104    9.6088   -3.1725 H         1 <0>         0.1086
     27 H3         11.2363    9.7701   -2.5897 H         1 <0>         0.0601
     28 H4         10.0675    8.1139   -2.0868 H         1 <0>         0.1463
     29 H5          7.9510    6.8692   -2.0088 H         1 <0>         0.1280
     30 H6          8.2029    6.1865   -6.2376 H         1 <0>         0.1511
     31 H7          9.7718    5.8154   -7.5696 H         1 <0>         0.0585
     32 H8          8.8680    7.3204   -7.8633 H         1 <0>         0.0585
     33 H9         10.4820    7.0973   -8.5799 H         1 <0>         0.1081
     34 H10         6.3939    5.9082   -2.0856 H         1 <0>         0.4080
     35 H11         4.9343    3.7632   -3.2014 H         1 <0>         0.0910
     36 H12         4.0309    5.2687   -3.4940 H         1 <0>         0.0916
     37 H13         4.0758    5.7677   -1.0655 H         1 <0>         0.1419
     38 H14         4.9791    4.2622   -0.7729 H         1 <0>         0.1418
     39 H15         2.2693    4.9607    0.3591 H         1 <0>         0.1437
     40 H16         3.1726    3.4552    0.6517 H         1 <0>         0.1479
     41 H17        -0.0673    4.9241    0.0293 H         1 <0>         0.1490
     42 H18        -2.1456    1.1979    0.0187 H         1 <0>         0.1522
     43 H19         0.0021   -0.0041    0.0020 H         1 <0>         0.1536
     44 H20         2.7009    0.9377   -0.9028 H         1 <0>         0.3959
     45 N2          2.9769    3.9956   -1.3767 N.4       1 <0>        -0.5144
     46 H21         3.1417    3.0385   -1.7100 H         1 <0>         0.4292
     47 H22         2.2907    4.4566   -1.9857 H         1 <0>         0.4365
@<TRIPOS>BOND
     1    1    2 1
     2    1   25 1
     3    1   26 1
     4    1   27 1
     5    2    3 1
     6    3    8 ar
     7    3    4 ar
     8    4    5 ar
     9    4   28 1
    10    5    6 ar
    11    5   29 1
    12    6    7 ar
    13    6   11 1
    14    7    8 ar
    15    7   30 1
    16    8    9 1
    17    9   10 1
    18   10   31 1
    19   10   32 1
    20   10   33 1
    21   11   12 2
    22   11   13 am
    23   13   14 1
    24   13   34 1
    25   14   15 1
    26   14   35 1
    27   14   36 1
    28   15   37 1
    29   15   38 1
    30   15   45 1
    31   16   17 1
    32   16   39 1
    33   16   40 1
    34   16   45 1
    35   17   22 ar
    36   17   18 ar
    37   18   19 ar
    38   18   41 1
    39   19   20 ar
    40   19   24 1
    41   20   21 ar
    42   20   42 1
    43   21   22 ar
    44   21   43 1
    45   22   23 1
    46   23   44 1
    47   45   46 1
    48   45   47 1
@<TRIPOS>MOLECULE
ZINC20538242
   63    65     0     0     0
SMALL
USER_CHARGES

@<TRIPOS>ATOM
      1 C1          0.1381    1.6837   -0.0584 C.3       1 <0>        -0.0883
      2 C2         -0.5827    2.3010   -1.2291 C.2       1 <0>         0.3054
      3 N1         -1.8731    2.4962   -1.3207 N.2       1 <0>        -0.5416
      4 H1          0.9341    2.7437   -2.5761 H         1 <0>         0.4516
      5 C3         -2.1626    3.0622   -2.4916 C.2       1 <0>         0.2044
      6 N2         -1.0554    3.2358   -3.1644 N.2       1 <0>        -0.2956
      7 N3         -0.0113    2.7523   -2.3591 N.pl3     1 <0>        -0.4669
      8 C4         -3.5428    3.4402   -2.9641 C.3       1 <0>        -0.0432
      9 C5         -3.8552    4.8740   -2.5310 C.3       1 <0>        -0.0030
     10 N4         -5.2006    5.2425   -2.9916 N.4       1 <0>        -0.5063
     11 C6         -5.5006    6.6191   -2.5757 C.3       1 <0>         0.0561
     12 C7         -6.8808    6.9971   -3.0482 C.ar      1 <0>        -0.1772
     13 C8         -7.0360    7.7578   -4.1912 C.ar      1 <0>        -0.0419
     14 C9         -8.3028    8.1051   -4.6253 C.ar      1 <0>        -0.0649
     15 C10        -9.4168    7.6915   -3.9160 C.ar      1 <0>        -0.0338
     16 C11        -9.2657    6.9310   -2.7730 C.ar      1 <0>        -0.1895
     17 C12        -7.9963    6.5769   -2.3392 C.ar      1 <0>         0.1478
     18 O1         -7.8459    5.8234   -1.2179 O.3       1 <0>        -0.3100
     19 C13        -9.0385    5.4264   -0.5383 C.3       1 <0>         0.0257
     20 C14        -8.6716    4.5914    0.6902 C.3       1 <0>         0.0863
     21 H2         -8.0452    3.7530    0.3857 H         1 <0>         0.1357
     22 C15        -9.9481    4.0623    1.3470 C.3       1 <0>        -0.0532
     23 N5         -9.5979    3.2929    2.5484 N.4       1 <0>        -0.3586
     24 C16        -8.7909    2.1252    2.1440 C.3       1 <0>        -0.0090
     25 C17        -7.9495    1.7005    3.3215 C.3       1 <0>        -0.1470
     26 C18        -8.6203    0.5614    4.1117 C.3       1 <0>        -0.1327
     27 C19       -10.1403    0.7801    4.2519 C.3       1 <0>        -0.1407
     28 C20       -10.4891    2.2167    4.5463 C.3       1 <0>        -0.1354
     29 C21       -10.7734    2.9483    3.2179 C.3       1 <0>        -0.0350
     30 O2         -7.9578    5.4051    1.6232 O.3       1 <0>        -0.5434
     31 Cl1        -8.4952    9.0614   -6.0613 Cl        1 <0>        -0.0280
     32 H3          0.2011    0.6046   -0.1985 H         1 <0>         0.1014
     33 H4          1.1430    2.1004    0.0104 H         1 <0>         0.0923
     34 H5         -0.4084    1.8996    0.8596 H         1 <0>         0.1030
     35 H6         -3.5862    3.3714   -4.0511 H         1 <0>         0.1122
     36 H7         -4.2750    2.7611   -2.5274 H         1 <0>         0.1124
     37 H8         -3.8117    4.9429   -1.4441 H         1 <0>         0.1391
     38 H9         -3.1230    5.5532   -2.9677 H         1 <0>         0.1389
     39 H10        -5.2408    5.1788   -3.9978 H         1 <0>         0.4304
     40 H11        -5.4571    6.6880   -1.4888 H         1 <0>         0.1443
     41 H12        -4.7684    7.2983   -3.0124 H         1 <0>         0.1443
     42 H13        -6.1677    8.0817   -4.7458 H         1 <0>         0.1559
     43 H14       -10.4049    7.9640   -4.2563 H         1 <0>         0.1529
     44 H15       -10.1353    6.6088   -2.2195 H         1 <0>         0.1465
     45 H16        -9.5897    6.3126   -0.2239 H         1 <0>         0.0882
     46 H17        -9.6585    4.8321   -1.2095 H         1 <0>         0.0921
     47 H18       -10.5874    4.9000    1.6256 H         1 <0>         0.1417
     48 H19       -10.4780    3.4186    0.6450 H         1 <0>         0.1471
     49 H20        -9.4491    1.3080    1.8491 H         1 <0>         0.1358
     50 H21        -8.1445    2.3966    1.3094 H         1 <0>         0.1297
     51 H22        -6.9784    1.3606    2.9614 H         1 <0>         0.1086
     52 H23        -7.8040    2.5551    3.9822 H         1 <0>         0.0836
     53 H24        -8.4433   -0.3817    3.5947 H         1 <0>         0.0816
     54 H25        -8.1758    0.5089    5.1056 H         1 <0>         0.0843
     55 H26       -10.6270    0.4818    3.3234 H         1 <0>         0.0689
     56 H27       -10.5140    0.1531    5.0615 H         1 <0>         0.0897
     57 H28       -11.3750    2.2543    5.1801 H         1 <0>         0.1130
     58 H29        -9.6540    2.6976    5.0559 H         1 <0>         0.0887
     59 H30       -11.3409    3.8551    3.4271 H         1 <0>         0.1314
     60 H31       -11.3694    2.2992    2.5763 H         1 <0>         0.1292
     61 H32        -8.4558    6.1720    1.9378 H         1 <0>         0.3951
     62 H33        -9.0396    3.8759    3.1539 H         1 <0>         0.4243
     63 H34        -5.8784    4.6138   -2.5874 H         1 <0>         0.4258
@<TRIPOS>BOND
     1    1   32 1
     2    1   33 1
     3    1   34 1
     4    1    2 1
     5    2    3 2
     6    2    7 1
     7    3    5 1
     8    4    7 1
     9    5    8 1
    10    5    6 2
    11    6    7 1
    12    8    9 1
    13    8   35 1
    14    8   36 1
    15    9   10 1
    16    9   37 1
    17    9   38 1
    18   10   11 1
    19   10   39 1
    20   10   63 1
    21   11   12 1
    22   11   40 1
    23   11   41 1
    24   12   17 ar
    25   12   13 ar
    26   13   14 ar
    27   13   42 1
    28   14   15 ar
    29   14   31 1
    30   15   16 ar
    31   15   43 1
    32   16   17 ar
    33   16   44 1
    34   17   18 1
    35   18   19 1
    36   19   20 1
    37   19   45 1
    38   19   46 1
    39   20   21 1
    40   20   22 1
    41   20   30 1
    42   22   23 1
    43   22   47 1
    44   22   48 1
    45   23   29 1
    46   23   24 1
    47   23   62 1
    48   24   25 1
    49   24   49 1
    50   24   50 1
    51   25   26 1
    52   25   51 1
    53   25   52 1
    54   26   27 1
    55   26   53 1
    56   26   54 1
    57   27   28 1
    58   27   55 1
    59   27   56 1
    60   28   29 1
    61   28   57 1
    62   28   58 1
    63   29   59 1
    64   29   60 1
    65   30   61 1
@<TRIPOS>MOLECULE
ZINC02707532
   60    63     0     0     0
SMALL
USER_CHARGES

@<TRIPOS>ATOM
      1 C1         -0.5506    0.7793    1.4040 C.ar      1 <0>        -0.1424
      2 C2          0.5341    1.6285    1.2325 C.ar      1 <0>        -0.0917
      3 C3          1.7877    1.1223    0.9672 C.ar      1 <0>        -0.1277
      4 C4          1.9710   -0.2532    0.8701 C.ar      1 <0>         0.1067
      5 C5          0.8686   -1.1095    1.0451 C.ar      1 <0>        -0.1117
      6 C6         -0.3931   -0.5749    1.3128 C.ar      1 <0>        -0.0662
      7 C7          1.3841   -2.4711    0.8838 C.2       1 <0>        -0.1829
      8 C8          2.6988   -2.3659    0.6337 C.2       1 <0>         0.0334
      9 N1          3.0674   -1.0482    0.6217 N.pl3     1 <0>        -0.4867
     10 C9          4.4261   -0.5565    0.3802 C.3       1 <0>         0.0878
     11 C10         5.1321   -0.3302    1.7186 C.3       1 <0>         0.0658
     12 H1          5.0999   -1.2478    2.3060 H         1 <0>         0.1267
     13 C11         6.5890    0.0632    1.4666 C.3       1 <0>        -0.0509
     14 N2          7.2979    0.1638    2.7493 N.4       1 <0>        -0.3719
     15 C12         7.3569   -1.1609    3.3813 C.3       1 <0>        -0.0130
     16 C13         7.9618   -1.0319    4.7807 C.3       1 <0>         0.0468
     17 O1          7.1056   -0.2311    5.5978 O.3       1 <0>        -0.5745
     18 C14         8.6621    0.6569    2.5174 C.3       1 <0>        -0.0509
     19 C15         8.6032    2.0944    1.9967 C.3       1 <0>         0.0642
     20 H2          8.0407    2.1199    1.0634 H         1 <0>         0.1262
     21 C16        10.0238    2.6061    1.7501 C.3       1 <0>         0.0876
     22 N3          9.9646    3.9367    1.1400 N.pl3     1 <0>        -0.4874
     23 C17        10.0160    4.1882   -0.2041 C.2       1 <0>         0.0334
     24 C18         9.9367    5.5097   -0.4257 C.2       1 <0>        -0.1819
     25 C19         9.8255    6.1576    0.8834 C.ar      1 <0>        -0.1114
     26 C20         9.8429    5.1200    1.8333 C.ar      1 <0>         0.1058
     27 C21         9.7467    5.4323    3.1854 C.ar      1 <0>        -0.1301
     28 C22         9.6328    6.7482    3.5773 C.ar      1 <0>        -0.0905
     29 C23         9.6124    7.7681    2.6359 C.ar      1 <0>        -0.1424
     30 C24         9.7135    7.4845    1.3030 C.ar      1 <0>        -0.0650
     31 O2          7.9588    2.9255    2.9641 O.3       1 <0>        -0.5381
     32 O3          4.4728    0.7166    2.4338 O.3       1 <0>        -0.5343
     33 H3         -1.5259    1.1922    1.6155 H         1 <0>         0.1262
     34 H4          0.3938    2.6967    1.3076 H         1 <0>         0.1270
     35 H5          2.6251    1.7913    0.8347 H         1 <0>         0.1103
     36 H6         -1.2415   -1.2295    1.4477 H         1 <0>         0.1253
     37 H7          0.8146   -3.3861    0.9532 H         1 <0>         0.1502
     38 H8          3.3666   -3.1980    0.4665 H         1 <0>         0.1680
     39 H9          4.9803   -1.2919   -0.2031 H         1 <0>         0.1073
     40 H10         4.3800    0.3834   -0.1698 H         1 <0>         0.0982
     41 H11         7.0676   -0.6938    0.8453 H         1 <0>         0.1430
     42 H12         6.6223    1.0260    0.9566 H         1 <0>         0.1375
     43 H13         6.3504   -1.5725    3.4572 H         1 <0>         0.1403
     44 H14         7.9761   -1.8243    2.7776 H         1 <0>         0.1438
     45 H15         8.0656   -2.0220    5.2244 H         1 <0>         0.0971
     46 H16         8.9422   -0.5605    4.7107 H         1 <0>         0.0690
     47 H17         7.4276   -0.1066    6.5011 H         1 <0>         0.4091
     48 H18         9.2213    0.6320    3.4527 H         1 <0>         0.1382
     49 H19         9.1571    0.0237    1.7811 H         1 <0>         0.1436
     50 H20        10.5587    2.6645    2.6980 H         1 <0>         0.0985
     51 H21        10.5452    1.9222    1.0803 H         1 <0>         0.1085
     52 H22        10.1068    3.4350   -0.9727 H         1 <0>         0.1683
     53 H23         9.9524    6.0020   -1.3869 H         1 <0>         0.1505
     54 H24         9.7609    4.6459    3.9255 H         1 <0>         0.1096
     55 H25         9.5582    6.9886    4.6276 H         1 <0>         0.1272
     56 H26         9.5222    8.7944    2.9599 H         1 <0>         0.1267
     57 H27         9.6962    8.2831    0.5762 H         1 <0>         0.1258
     58 H28         8.4417    3.0054    3.7981 H         1 <0>         0.3883
     59 H29         4.4631    1.5647    1.9693 H         1 <0>         0.3871
     60 H30         6.8073    0.8041    3.3554 H         1 <0>         0.4426
@<TRIPOS>BOND
     1    1    6 ar
     2    1    2 ar
     3    1   33 1
     4    2    3 ar
     5    2   34 1
     6    3    4 ar
     7    3   35 1
     8    4    9 1
     9    4    5 ar
    10    5    6 ar
    11    5    7 1
    12    6   36 1
    13    7    8 2
    14    7   37 1
    15    8    9 1
    16    8   38 1
    17    9   10 1
    18   10   11 1
    19   10   39 1
    20   10   40 1
    21   11   12 1
    22   11   13 1
    23   11   32 1
    24   13   14 1
    25   13   41 1
    26   13   42 1
    27   14   15 1
    28   14   18 1
    29   14   60 1
    30   15   16 1
    31   15   43 1
    32   15   44 1
    33   16   17 1
    34   16   45 1
    35   16   46 1
    36   17   47 1
    37   18   19 1
    38   18   48 1
    39   18   49 1
    40   19   20 1
    41   19   21 1
    42   19   31 1
    43   21   22 1
    44   21   50 1
    45   21   51 1
    46   22   26 1
    47   22   23 1
    48   23   24 2
    49   23   52 1
    50   24   25 1
    51   24   53 1
    52   25   30 ar
    53   25   26 ar
    54   26   27 ar
    55   27   28 ar
    56   27   54 1
    57   28   29 ar
    58   28   55 1
    59   29   30 ar
    60   29   56 1
    61   30   57 1
    62   31   58 1
    63   32   59 1
@<TRIPOS>MOLECULE
ZINC58086242
   55    58     0     0     0
SMALL
USER_CHARGES

@<TRIPOS>ATOM
      1 C1         -0.0160    1.3787   -0.0048 C.ar      1 <0>         0.0390
      2 C2          1.1952    2.0580   -0.0215 C.ar      1 <0>        -0.1691
      3 C3          2.3733    1.3392   -0.0445 C.ar      1 <0>         0.1485
      4 N1          2.3609    0.0196   -0.0508 N.ar      1 <0>        -0.5032
      5 C4          1.2273   -0.6641   -0.0358 C.ar      1 <0>         0.4430
      6 C5          0.0026   -0.0041   -0.0119 C.ar      1 <0>        -0.1970
      7 N2          1.2608   -2.0538   -0.0436 N.pl3     1 <0>        -0.7022
      8 C6          0.0102   -2.8167   -0.0272 C.3       1 <0>         0.1136
      9 C7          0.3260   -4.3137   -0.0402 C.3       1 <0>        -0.1487
     10 C8         -0.9801   -5.1106   -0.0230 C.3       1 <0>         0.1424
     11 N3         -0.6778   -6.5440   -0.0354 N.am      1 <0>        -0.7461
     12 C9         -1.6806   -7.4443   -0.0237 C.2       1 <0>         0.7066
     13 O1         -2.8362   -7.0669   -0.0029 O.2       1 <0>        -0.5670
     14 N4         -1.4025   -8.7630   -0.0352 N.am      1 <0>        -0.6827
     15 C10        -2.4383   -9.6976    0.0748 C.ar      1 <0>         0.1506
     16 C11        -3.6723   -9.4406   -0.5084 C.ar      1 <0>        -0.1054
     17 C12        -4.6923  -10.3650   -0.3985 C.ar      1 <0>        -0.1054
     18 C13        -4.4861  -11.5455    0.2919 C.ar      1 <0>        -0.0986
     19 C14        -3.2590  -11.8041    0.8740 C.ar      1 <0>        -0.1038
     20 C15        -2.2328  -10.8862    0.7624 C.ar      1 <0>        -0.1178
     21 C16        -3.0391  -13.0913    1.6262 C.3       1 <0>         0.2013
     22 N5         -2.5433  -14.1167    0.7049 N.am      1 <0>        -0.4277
     23 C17        -1.2501  -14.3771    0.4236 C.2       1 <0>         0.6442
     24 O2         -0.2838  -13.8000    0.8915 O.2       1 <0>        -0.5432
     25 N6         -1.2157  -15.3890   -0.4666 N.am      1 <0>        -0.4807
     26 C18        -0.1684  -16.0362   -1.0781 C.2       1 <0>         0.1234
     27 C19        -0.3939  -17.0361   -1.9483 C.2       1 <0>        -0.1781
     28 C20        -1.7101  -17.4413   -2.2506 C.2       1 <0>        -0.0423
     29 C21        -2.7598  -16.8195   -1.6607 C.2       1 <0>        -0.1224
     30 C22        -2.5168  -15.7653   -0.7441 C.2       1 <0>         0.2959
     31 N7         -3.3265  -15.0094   -0.0397 N.2       1 <0>        -0.2823
     32 H1         -0.9514    1.9182    0.0178 H         1 <0>         0.1754
     33 H2          1.2151    3.1378   -0.0169 H         1 <0>         0.1815
     34 H3          3.3174    1.8635   -0.0579 H         1 <0>         0.2074
     35 H4         -0.9208   -0.5640    0.0006 H         1 <0>         0.1788
     36 H5          2.1121   -2.5183   -0.0600 H         1 <0>         0.4194
     37 H6         -0.5529   -2.5720    0.8734 H         1 <0>         0.0947
     38 H7         -0.5820   -2.5627   -0.9063 H         1 <0>         0.0946
     39 H8          0.8891   -4.5585   -0.9408 H         1 <0>         0.0861
     40 H9          0.9182   -4.5678    0.8389 H         1 <0>         0.0863
     41 H10        -1.5432   -4.8658    0.8776 H         1 <0>         0.0767
     42 H11        -1.5723   -4.8565   -0.9021 H         1 <0>         0.0764
     43 H12         0.2442   -6.8451   -0.0521 H         1 <0>         0.3996
     44 H13        -0.4844   -9.0643   -0.1197 H         1 <0>         0.4079
     45 H14        -3.8341   -8.5186   -1.0471 H         1 <0>         0.1408
     46 H15        -5.6521  -10.1657   -0.8518 H         1 <0>         0.1309
     47 H16        -5.2855  -12.2667    0.3768 H         1 <0>         0.1303
     48 H17        -1.2731  -11.0908    1.2135 H         1 <0>         0.1294
     49 H18        -2.3071  -12.9292    2.4174 H         1 <0>         0.1072
     50 H19        -3.9808  -13.4214    2.0646 H         1 <0>         0.1123
     51 H20         0.8460  -15.7382   -0.8576 H         1 <0>         0.1694
     52 H21         0.4408  -17.5332   -2.4201 H         1 <0>         0.1575
     53 H22        -1.8814  -18.2453   -2.9511 H         1 <0>         0.1512
     54 H23        -3.7712  -17.1234   -1.8869 H         1 <0>         0.1596
     55 H24         3.2032   -0.4613   -0.0671 H         1 <0>         0.4420
@<TRIPOS>BOND
     1    1    6 ar
     2    1    2 ar
     3    1   32 1
     4    2    3 ar
     5    2   33 1
     6    3    4 ar
     7    3   34 1
     8    4    5 ar
     9    4   55 1
    10    5    6 ar
    11    5    7 1
    12    6   35 1
    13    7    8 1
    14    7   36 1
    15    8    9 1
    16    8   37 1
    17    8   38 1
    18    9   10 1
    19    9   39 1
    20    9   40 1
    21   10   11 1
    22   10   41 1
    23   10   42 1
    24   11   12 am
    25   11   43 1
    26   12   13 2
    27   12   14 am
    28   14   15 1
    29   14   44 1
    30   15   20 ar
    31   15   16 ar
    32   16   17 ar
    33   16   45 1
    34   17   18 ar
    35   17   46 1
    36   18   19 ar
    37   18   47 1
    38   19   20 ar
    39   19   21 1
    40   20   48 1
    41   21   22 1
    42   21   49 1
    43   21   50 1
    44   22   31 1
    45   22   23 am
    46   23   24 2
    47   23   25 am
    48   25   30 1
    49   25   26 1
    50   26   27 2
    51   26   51 1
    52   27   28 1
    53   27   52 1
    54   28   29 2
    55   28   53 1
    56   29   30 1
    57   29   54 1
    58   30   31 2
@<TRIPOS>MOLECULE
ZINC13120574
   48    51     0     0     0
SMALL
USER_CHARGES

@<TRIPOS>ATOM
      1 C1         -1.2240    1.1683    0.1007 C.3       1 <0>        -0.1123
      2 C2         -0.5910   -0.1951   -0.0061 C.2       1 <0>         0.2317
      3 C3          0.0024   -0.7053   -1.1087 C.2       1 <0>        -0.1370
      4 C4          0.4754   -2.0470   -0.7650 C.2       1 <0>         0.5616
      5 O1          1.0615   -2.8198   -1.5014 O.2       1 <0>        -0.4936
      6 N1          0.1386   -2.2643    0.5233 N.am      1 <0>        -0.3597
      7 N2         -0.5155   -1.1225    0.9998 N.pl3     1 <0>        -0.3713
      8 C5         -1.0388   -0.9478    2.3569 C.3       1 <0>         0.0874
      9 C6          0.4014   -3.4260    1.2559 C.ar      1 <0>         0.1389
     10 C7         -0.6096   -4.0259    1.9956 C.ar      1 <0>        -0.1242
     11 C8         -0.3468   -5.1735    2.7178 C.ar      1 <0>        -0.1008
     12 C9          0.9211   -5.7252    2.7049 C.ar      1 <0>        -0.1091
     13 C10         1.9300   -5.1302    1.9699 C.ar      1 <0>        -0.0982
     14 C11         1.6725   -3.9857    1.2410 C.ar      1 <0>        -0.0997
     15 N3          0.1392   -0.0652   -2.3556 N.pl3     1 <0>        -0.5269
     16 C12        -0.3935   -0.6225   -3.4612 C.2       1 <0>         0.4684
     17 N4         -0.3447    0.0341   -4.6373 N.pl3     1 <0>        -0.3894
     18 N5          0.2117    1.1960   -4.7048 N.2       1 <0>        -0.0345
     19 C13         0.2601    1.8483   -5.8731 C.2       1 <0>        -0.0199
     20 C14         0.8607    3.1736   -6.1256 C.ar      1 <0>        -0.0402
     21 C15         1.5134    4.1029   -5.3207 C.ar      1 <0>        -0.0581
     22 C16         1.9702    5.2818   -5.8710 C.ar      1 <0>        -0.0778
     23 C17         1.7807    5.5422   -7.2194 C.ar      1 <0>        -0.0768
     24 C18         1.1355    4.6292   -8.0270 C.ar      1 <0>        -0.0721
     25 C19         0.6684    3.4349   -7.4904 C.ar      1 <0>         0.0670
     26 N6         -0.0001    2.3549   -8.0425 N.pl3     1 <0>        -0.4879
     27 H1         -0.2564    2.2822   -8.9752 H         1 <0>         0.4503
     28 C20        -0.2415    1.4104   -7.0999 C.2       1 <0>         0.4539
     29 O2         -0.8697    0.2347   -7.3135 O.3       1 <0>        -0.4470
     30 S1         -1.1319   -2.1645   -3.3717 S.2       1 <0>        -0.3703
     31 H2         -0.4755    1.8922    0.4230 H         1 <0>         0.1039
     32 H3         -1.6189    1.4627   -0.8717 H         1 <0>         0.0935
     33 H4         -2.0353    1.1363    0.8279 H         1 <0>         0.0942
     34 H5         -1.4489    0.0567    2.4617 H         1 <0>         0.1112
     35 H6         -1.8234   -1.6816    2.5410 H         1 <0>         0.0856
     36 H7         -0.2334   -1.0884    3.0778 H         1 <0>         0.0881
     37 H8         -1.5999   -3.5953    2.0064 H         1 <0>         0.1270
     38 H9         -1.1324   -5.6403    3.2934 H         1 <0>         0.1352
     39 H10         1.1240   -6.6227    3.2705 H         1 <0>         0.1338
     40 H11         2.9194   -5.5632    1.9625 H         1 <0>         0.1364
     41 H12         2.4597   -3.5242    0.6632 H         1 <0>         0.1307
     42 H13         1.6610    3.9016   -4.2699 H         1 <0>         0.1510
     43 H14         2.4770    6.0051   -5.2493 H         1 <0>         0.1539
     44 H15         2.1414    6.4686   -7.6412 H         1 <0>         0.1557
     45 H16         0.9929    4.8423   -9.0762 H         1 <0>         0.1508
     46 H17        -1.8286    0.2738   -7.1947 H         1 <0>         0.4487
     47 H18         0.6167    0.7767   -2.4189 H         1 <0>         0.4171
     48 H19        -0.7281   -0.3670   -5.4330 H         1 <0>         0.4309
@<TRIPOS>BOND
     1    1    2 1
     2    1   31 1
     3    1   32 1
     4    1   33 1
     5    2    7 1
     6    2    3 2
     7    3    4 1
     8    3   15 1
     9    4    5 2
    10    4    6 am
    11    6    7 1
    12    6    9 1
    13    7    8 1
    14    8   34 1
    15    8   35 1
    16    8   36 1
    17    9   14 ar
    18    9   10 ar
    19   10   11 ar
    20   10   37 1
    21   11   12 ar
    22   11   38 1
    23   12   13 ar
    24   12   39 1
    25   13   14 ar
    26   13   40 1
    27   14   41 1
    28   15   16 1
    29   15   47 1
    30   16   17 1
    31   16   30 2
    32   17   18 2
    33   17   48 1
    34   18   19 1
    35   19   28 2
    36   19   20 1
    37   20   25 ar
    38   20   21 ar
    39   21   22 ar
    40   21   42 1
    41   22   23 ar
    42   22   43 1
    43   23   24 ar
    44   23   44 1
    45   24   25 ar
    46   24   45 1
    47   25   26 1
    48   26   27 1
    49   26   28 1
    50   28   29 1
    51   29   46 1
@<TRIPOS>MOLECULE
ZINC10039574
   46    47     0     0     0
SMALL
USER_CHARGES
N-[2-[(4-hydroxy-3,5-dimethoxy-phenyl)methylamino]ethyl]pyridine-3-carboxamide
@<TRIPOS>ATOM
      1 C1          7.8154    2.4189    3.5191 C.3       1 <0>         0.0215
      2 O1          8.4639    2.8431    2.3185 O.3       1 <0>        -0.2935
      3 C2          7.8798    2.4883    1.1428 C.ar      1 <0>         0.1482
      4 C3          6.7075    1.7475    1.1457 C.ar      1 <0>        -0.2087
      5 C4          6.1135    1.3856   -0.0489 C.ar      1 <0>        -0.0988
      6 C5          6.6877    1.7556   -1.2506 C.ar      1 <0>        -0.2086
      7 C6          7.8565    2.5016   -1.2621 C.ar      1 <0>         0.1482
      8 C7          8.4571    2.8671   -0.0633 C.ar      1 <0>         0.0776
      9 O2          9.6074    3.5945   -0.0704 O.3       1 <0>        -0.4686
     10 O3          8.4174    2.8702   -2.4449 O.3       1 <0>        -0.2935
     11 C8          7.7456    2.4596   -3.6374 C.3       1 <0>         0.0215
     12 C9          4.8398    0.5801   -0.0410 C.3       1 <0>         0.0532
     13 C10         2.4238    0.7372   -0.0171 C.3       1 <0>        -0.0185
     14 C11         1.2475    1.7155   -0.0006 C.3       1 <0>         0.0946
     15 N1         -0.0111    0.9658    0.0074 N.am      1 <0>        -0.7315
     16 C12        -1.1873    1.6238    0.0165 C.2       1 <0>         0.5772
     17 O4         -1.2038    2.8392    0.0232 O.2       1 <0>        -0.5165
     18 C13        -2.4575    0.8673    0.0184 C.ar      1 <0>        -0.2034
     19 C14        -3.6861    1.5388    0.0337 C.ar      1 <0>        -0.0102
     20 C15        -4.8458    0.7843    0.0292 C.ar      1 <0>        -0.1730
     21 C16        -4.7555   -0.5962    0.0213 C.ar      1 <0>         0.1355
     22 N2         -3.5835   -1.2020    0.0125 N.ar      1 <0>        -0.4851
     23 C17        -2.4522   -0.5279    0.0108 C.ar      1 <0>         0.1372
     24 H1          6.8086    2.8351    3.5549 H         1 <0>         0.0591
     25 H2          7.7594    1.3304    3.5367 H         1 <0>         0.0613
     26 H3          8.3835    2.7674    4.3816 H         1 <0>         0.1130
     27 H4          6.2582    1.4527    2.0825 H         1 <0>         0.1435
     28 H5          6.2231    1.4668   -2.1818 H         1 <0>         0.1436
     29 H6         10.4119    3.0581   -0.0809 H         1 <0>         0.3974
     30 H7          7.6895    1.3714   -3.6665 H         1 <0>         0.0613
     31 H8          6.7382    2.8758   -3.6486 H         1 <0>         0.0591
     32 H9          8.2966    2.8183   -4.5068 H         1 <0>         0.1130
     33 H10         4.8159   -0.0531    0.8458 H         1 <0>         0.1424
     34 H11         4.7989   -0.0436   -0.9340 H         1 <0>         0.1424
     35 H12         2.3830    0.1051    0.8699 H         1 <0>         0.1412
     36 H13         2.3661    0.1146   -0.9100 H         1 <0>         0.1412
     37 H14         1.2883    2.3477   -0.8877 H         1 <0>         0.0928
     38 H15         1.3053    2.3381    0.8922 H         1 <0>         0.0929
     39 H16         0.0021   -0.0041    0.0020 H         1 <0>         0.4082
     40 H17        -3.7273    2.6180    0.0448 H         1 <0>         0.1508
     41 H18        -5.8114    1.2679    0.0367 H         1 <0>         0.1510
     42 H19        -5.6591   -1.1877    0.0227 H         1 <0>         0.1692
     43 H20        -1.5122   -1.0597    0.0031 H         1 <0>         0.1543
     44 N3          3.6865    1.4997   -0.0250 N.4       1 <0>        -0.5151
     45 H21         3.7170    2.0957   -0.8605 H         1 <0>         0.4363
     46 H22         3.7330    2.0867    0.8161 H         1 <0>         0.4363
@<TRIPOS>BOND
     1    1    2 1
     2    1   24 1
     3    1   25 1
     4    1   26 1
     5    2    3 1
     6    3    8 ar
     7    3    4 ar
     8    4    5 ar
     9    4   27 1
    10    5    6 ar
    11    5   12 1
    12    6    7 ar
    13    6   28 1
    14    7    8 ar
    15    7   10 1
    16    8    9 1
    17    9   29 1
    18   10   11 1
    19   11   30 1
    20   11   31 1
    21   11   32 1
    22   12   33 1
    23   12   34 1
    24   12   44 1
    25   13   14 1
    26   13   35 1
    27   13   36 1
    28   13   44 1
    29   14   15 1
    30   14   37 1
    31   14   38 1
    32   15   16 am
    33   15   39 1
    34   16   17 2
    35   16   18 1
    36   18   23 ar
    37   18   19 ar
    38   19   20 ar
    39   19   40 1
    40   20   21 ar
    41   20   41 1
    42   21   22 ar
    43   21   42 1
    44   22   23 ar
    45   23   43 1
    46   44   45 1
    47   44   46 1
@<TRIPOS>MOLECULE
ZINC32551004
   57    59     0     0     0
SMALL
USER_CHARGES

@<TRIPOS>ATOM
      1 C1         -0.0183    1.4693   -0.0314 C.3       1 <0>        -0.1514
      2 C2         -0.0089   -0.0605   -0.0526 C.3       1 <0>        -0.0882
      3 C3          0.7341   -0.5830    1.1786 C.3       1 <0>        -0.1518
      4 C4         -1.4481   -0.5796   -0.0381 C.3       1 <0>        -0.0625
      5 C5         -2.1435   -0.1675   -1.3100 C.2       1 <0>         0.1051
      6 C6         -2.7552    1.0180   -1.5367 C.2       1 <0>        -0.2700
      7 C7         -3.2705    0.9947   -2.8368 C.2       1 <0>         0.0738
      8 N1         -2.9787   -0.1633   -3.3714 N.2       1 <0>        -0.2693
      9 N2         -2.2627   -0.9125   -2.4289 N.pl3     1 <0>        -0.4688
     10 H1         -1.9159   -1.8092   -2.5570 H         1 <0>         0.4404
     11 C8         -4.0312    2.1103   -3.5060 C.3       1 <0>         0.1386
     12 N3         -3.1046    2.9262   -4.3020 N.3       1 <0>        -0.5292
     13 C9         -2.1413    3.6216   -3.4390 C.3       1 <0>         0.0502
     14 C10        -1.1059    4.3425   -4.3053 C.3       1 <0>        -0.1381
     15 C11        -1.8193    5.3448   -5.2169 C.3       1 <0>         0.0344
     16 H2         -2.3229    6.0961   -4.6085 H         1 <0>         0.1422
     17 C12        -2.8508    4.6020   -6.0705 C.3       1 <0>         0.0924
     18 H3         -2.3427    3.8777   -6.7071 H         1 <0>         0.0904
     19 C13        -3.8356    3.8737   -5.1530 C.3       1 <0>         0.0252
     20 O1         -3.5595    5.5385   -6.8847 O.3       1 <0>        -0.5711
     21 N4         -0.8366    5.9992   -6.0910 N.4       1 <0>        -0.3784
     22 C14        -0.0735    4.9774   -6.8178 C.3       1 <0>        -0.0110
     23 C15         0.8957    5.6542   -7.7894 C.3       1 <0>        -0.1413
     24 C16         1.8579    6.5484   -7.0022 C.3       1 <0>         0.0968
     25 C17         1.0476    7.5627   -6.1900 C.3       1 <0>        -0.1822
     26 C18         0.0728    6.8152   -5.2775 C.3       1 <0>        -0.0061
     27 O2          2.7177    7.2406   -7.9098 O.3       1 <0>        -0.5526
     28 H4          1.0070    1.8392   -0.0417 H         1 <0>         0.0545
     29 H5         -0.5476    1.8416   -0.9085 H         1 <0>         0.0576
     30 H6         -0.5209    1.8171    0.8711 H         1 <0>         0.0581
     31 H7          0.4937   -0.4083   -0.9551 H         1 <0>         0.0685
     32 H8          0.2315   -0.2352    2.0811 H         1 <0>         0.0598
     33 H9          0.7408   -1.6729    1.1635 H         1 <0>         0.0578
     34 H10         1.7594   -0.2132    1.1683 H         1 <0>         0.0598
     35 H11        -1.4414   -1.6670    0.0364 H         1 <0>         0.0798
     36 H12        -1.9771   -0.1600    0.8176 H         1 <0>         0.0948
     37 H13        -2.8322    1.8373   -0.8373 H         1 <0>         0.1449
     38 H14        -4.7960    1.6885   -4.1581 H         1 <0>         0.0977
     39 H15        -4.5042    2.7337   -2.7472 H         1 <0>         0.0650
     40 H16        -2.6669    4.3491   -2.8204 H         1 <0>         0.0512
     41 H17        -1.6380    2.8970   -2.7989 H         1 <0>         0.1057
     42 H18        -0.4002    4.8714   -3.6647 H         1 <0>         0.0994
     43 H19        -0.5703    3.6141   -4.9141 H         1 <0>         0.0995
     44 H20        -4.5630    3.3321   -5.7578 H         1 <0>         0.1014
     45 H21        -4.3533    4.5999   -4.5264 H         1 <0>         0.0582
     46 H22        -4.2307    5.1366   -7.4530 H         1 <0>         0.4090
     47 H23         0.4889    4.3711   -6.1077 H         1 <0>         0.1336
     48 H24        -0.7599    4.3398   -7.3750 H         1 <0>         0.1363
     49 H25         1.4625    4.8940   -8.3268 H         1 <0>         0.1193
     50 H26         0.3342    6.2607   -8.5002 H         1 <0>         0.0965
     51 H27         2.4557    5.9355   -6.3276 H         1 <0>         0.0731
     52 H28         1.7230    8.1666   -5.5840 H         1 <0>         0.1150
     53 H29         0.4893    8.2088   -6.8675 H         1 <0>         0.0973
     54 H30        -0.5056    7.5344   -4.6976 H         1 <0>         0.1335
     55 H31         0.6321    6.1697   -4.6003 H         1 <0>         0.1307
     56 H32         3.3547    7.8266   -7.4786 H         1 <0>         0.3937
     57 H33        -1.3173    6.5907   -6.7521 H         1 <0>         0.4311
@<TRIPOS>BOND
     1    1    2 1
     2    1   28 1
     3    1   29 1
     4    1   30 1
     5    2    3 1
     6    2    4 1
     7    2   31 1
     8    3   32 1
     9    3   33 1
    10    3   34 1
    11    4    5 1
    12    4   35 1
    13    4   36 1
    14    5    9 1
    15    5    6 2
    16    6    7 1
    17    6   37 1
    18    7    8 2
    19    7   11 1
    20    8    9 1
    21    9   10 1
    22   11   12 1
    23   11   38 1
    24   11   39 1
    25   12   19 1
    26   12   13 1
    27   13   14 1
    28   13   40 1
    29   13   41 1
    30   14   15 1
    31   14   42 1
    32   14   43 1
    33   15   16 1
    34   15   17 1
    35   15   21 1
    36   17   18 1
    37   17   19 1
    38   17   20 1
    39   19   44 1
    40   19   45 1
    41   20   46 1
    42   21   26 1
    43   21   22 1
    44   21   57 1
    45   22   23 1
    46   22   47 1
    47   22   48 1
    48   23   24 1
    49   23   49 1
    50   23   50 1
    51   24   25 1
    52   24   27 1
    53   24   51 1
    54   25   26 1
    55   25   52 1
    56   25   53 1
    57   26   54 1
    58   26   55 1
    59   27   56 1
@<TRIPOS>MOLECULE
ZINC45094200
   39    40     0     0     0
SMALL
USER_CHARGES

@<TRIPOS>ATOM
      1 C1         -0.0168    1.3848    0.0097 C.ar      1 <0>        -0.2100
      2 C2          1.1706    2.0906    0.0021 C.ar      1 <0>         0.0411
      3 C3          2.3775    1.4166   -0.0130 C.ar      1 <0>        -0.7322
      4 C4          2.4004    0.0325   -0.0207 C.ar      1 <0>         0.0971
      5 C5          1.2159   -0.6793   -0.0137 C.ar      1 <0>        -0.2081
      6 C6          0.0021   -0.0041    0.0020 C.ar      1 <0>         0.2830
      7 N1         -1.1970   -0.7202    0.0101 N.pl3     1 <0>        -0.8569
      8 Cl1         3.9184   -0.8097   -0.0397 Cl        1 <0>        -0.0503
      9 S1          3.8896    2.3211   -0.0232 S.o2      1 <0>         2.6976
     10 O1          4.6879    1.7659   -1.0594 O.2       1 <0>        -0.9434
     11 O2          3.5395    3.6978    0.0142 O.2       1 <0>        -0.9532
     12 N2          4.6668    1.9915    1.4014 N.pl3     1 <0>        -1.1161
     13 C7          5.1371    0.6326    1.6819 C.3       1 <0>         0.1082
     14 C8          6.1253    0.6658    2.8495 C.3       1 <0>        -0.1303
     15 C9          6.6164   -0.7534    3.1424 C.3       1 <0>        -0.1414
     16 C10         7.6046   -0.7202    4.3100 C.3       1 <0>         0.0907
     17 N3          8.0748   -2.0791    4.5905 N.pl3     1 <0>        -0.4078
     18 C11         7.5001   -2.9762    5.4498 C.2       1 <0>         0.0248
     19 C12         8.2490   -4.0945    5.4039 C.2       1 <0>         0.0034
     20 N4          9.2537   -3.8858    4.5401 N.pl3     1 <0>        -0.4768
     21 C13         9.1528   -2.6825    4.0452 C.cat     1 <0>         0.2880
     22 H1         -0.9590    1.9124    0.0260 H         1 <0>         0.1411
     23 H2          1.1560    3.1705    0.0077 H         1 <0>         0.1548
     24 H3          1.2339   -1.7591   -0.0200 H         1 <0>         0.1413
     25 H4         -2.0441   -0.2477    0.0210 H         1 <0>         0.4097
     26 H5         -1.1827   -1.6901    0.0047 H         1 <0>         0.4067
     27 H6          4.8108    2.6981    2.0501 H         1 <0>         0.4210
     28 H7          4.2879    0.0009    1.9425 H         1 <0>         0.0747
     29 H8          5.6320    0.2298    0.7983 H         1 <0>         0.0858
     30 H9          6.9745    1.2975    2.5889 H         1 <0>         0.0842
     31 H10         5.6303    1.0686    3.7331 H         1 <0>         0.0828
     32 H11         5.7672   -1.3851    3.4030 H         1 <0>         0.0853
     33 H12         7.1113   -1.1562    2.2588 H         1 <0>         0.0832
     34 H13         8.4538   -0.0884    4.0494 H         1 <0>         0.1241
     35 H14         7.1096   -0.3174    5.1936 H         1 <0>         0.1263
     36 H15         6.6161   -2.8176    6.0496 H         1 <0>         0.2226
     37 H16         8.0718   -5.0005    5.9644 H         1 <0>         0.2235
     38 H17         9.8222   -2.2414    3.3214 H         1 <0>         0.2599
     39 H18         9.9441   -4.5292    4.3158 H         1 <0>         0.4655
@<TRIPOS>BOND
     1    1    6 ar
     2    1    2 ar
     3    1   22 1
     4    2    3 ar
     5    2   23 1
     6    3    4 ar
     7    3    9 1
     8    4    5 ar
     9    4    8 1
    10    5    6 ar
    11    5   24 1
    12    6    7 1
    13    7   25 1
    14    7   26 1
    15    9   10 2
    16    9   11 2
    17    9   12 1
    18   12   13 1
    19   12   27 1
    20   13   14 1
    21   13   28 1
    22   13   29 1
    23   14   15 1
    24   14   30 1
    25   14   31 1
    26   15   16 1
    27   15   32 1
    28   15   33 1
    29   16   17 1
    30   16   34 1
    31   16   35 1
    32   17   21 1
    33   17   18 1
    34   18   19 2
    35   18   36 1
    36   19   20 1
    37   19   37 1
    38   20   21 2
    39   20   39 1
    40   21   38 1
@<TRIPOS>MOLECULE
ZINC61572033
   53    54     0     0     0
SMALL
USER_CHARGES

@<TRIPOS>ATOM
      1 C1         -3.1402    1.4541  -10.1179 C.3       1 <0>        -0.1723
      2 C2         -3.1444   -0.0527  -10.0973 C.2       1 <0>         0.5151
      3 O1         -3.7801   -0.6688  -10.9264 O.2       1 <0>        -0.5449
      4 N1         -2.4419   -0.7158   -9.1575 N.am      1 <0>        -0.7237
      5 C3         -2.4460   -2.1806   -9.1374 C.3       1 <0>         0.1006
      6 C4         -1.5899   -2.6698   -7.9978 C.2       1 <0>         0.5166
      7 O2         -1.0313   -1.8733   -7.2736 O.2       1 <0>        -0.5304
      8 N2         -1.4449   -3.9925   -7.7833 N.am      1 <0>        -0.7180
      9 C5         -0.6127   -4.4680   -6.6754 C.3       1 <0>         0.1017
     10 C6         -0.6169   -5.9749   -6.6548 C.2       1 <0>         0.5153
     11 O3         -1.2526   -6.5910   -7.4839 O.2       1 <0>        -0.5125
     12 N3          0.0857   -6.6379   -5.7150 N.am      1 <0>        -0.6717
     13 C7          0.0039   -8.0325   -5.6344 C.ar      1 <0>         0.1618
     14 C8          0.0479   -8.6618   -4.3972 C.ar      1 <0>        -0.1381
     15 C9         -0.0330  -10.0384   -4.3211 C.ar      1 <0>        -0.0879
     16 C10        -0.1577  -10.7901   -5.4751 C.ar      1 <0>        -0.1232
     17 C11        -0.2013  -10.1665   -6.7086 C.ar      1 <0>        -0.0874
     18 C12        -0.1271   -8.7898   -6.7911 C.ar      1 <0>        -0.1161
     19 C13        -0.2457  -12.2920   -5.3883 C.3       1 <0>        -0.0980
     20 C14        -1.7119  -12.7105   -5.2622 C.3       1 <0>        -0.0080
     21 N4         -1.7923  -14.1673   -5.0915 N.4       1 <0>        -0.3893
     22 C15        -3.1940  -14.5832   -5.1721 C.3       1 <0>        -0.0114
     23 C16        -3.2762  -16.1013   -5.3713 C.3       1 <0>        -0.1272
     24 S1         -2.5291  -16.9082   -3.9209 S.3       1 <0>        -0.1915
     25 C17        -0.9367  -16.0416   -3.7591 C.3       1 <0>        -0.1267
     26 C18        -1.2045  -14.5325   -3.8011 C.3       1 <0>        -0.0181
     27 H1         -3.9586    1.8282   -9.5027 H         1 <0>         0.0975
     28 H2         -2.1924    1.8202   -9.7234 H         1 <0>         0.0829
     29 H3         -3.2667    1.8038  -11.1425 H         1 <0>         0.0976
     30 H4         -1.9335   -0.2231   -8.4944 H         1 <0>         0.4137
     31 H5         -3.4667   -2.5393   -9.0051 H         1 <0>         0.1029
     32 H6         -2.0475   -2.5580  -10.0792 H         1 <0>         0.1034
     33 H7         -1.8917   -4.6296   -8.3625 H         1 <0>         0.4165
     34 H8          0.4081   -4.1093   -6.8078 H         1 <0>         0.1095
     35 H9         -1.0112   -4.0907   -5.7336 H         1 <0>         0.1094
     36 H10         0.6480   -6.1484   -5.0944 H         1 <0>         0.4204
     37 H11         0.1456   -8.0753   -3.4956 H         1 <0>         0.1345
     38 H12         0.0015  -10.5284   -3.3593 H         1 <0>         0.1293
     39 H13        -0.2984  -10.7563   -7.6080 H         1 <0>         0.1290
     40 H14        -0.1664   -8.3031   -7.7543 H         1 <0>         0.1457
     41 H15         0.1821  -12.7336   -6.2883 H         1 <0>         0.0967
     42 H16         0.3075  -12.6385   -4.5154 H         1 <0>         0.0950
     43 H17        -2.1572  -12.2183   -4.3976 H         1 <0>         0.1350
     44 H18        -2.2515  -12.4200   -6.1636 H         1 <0>         0.1365
     45 H19        -3.7062  -14.3108   -4.2494 H         1 <0>         0.1432
     46 H20        -3.6730  -14.0812   -6.0127 H         1 <0>         0.1449
     47 H21        -4.3192  -16.4039   -5.4636 H         1 <0>         0.1545
     48 H22        -2.7299  -16.3840   -6.2712 H         1 <0>         0.1110
     49 H23        -0.4692  -16.3057   -2.8105 H         1 <0>         0.1542
     50 H24        -0.2805  -16.3215   -4.5833 H         1 <0>         0.1109
     51 H25        -0.2664  -13.9942   -3.6652 H         1 <0>         0.1462
     52 H26        -1.8937  -14.2645   -3.0003 H         1 <0>         0.1438
     53 H27        -1.2721  -14.6159   -5.8306 H         1 <0>         0.4211
@<TRIPOS>BOND
     1    1    2 1
     2    1   27 1
     3    1   28 1
     4    1   29 1
     5    2    3 2
     6    2    4 am
     7    4    5 1
     8    4   30 1
     9    5    6 1
    10    5   31 1
    11    5   32 1
    12    6    7 2
    13    6    8 am
    14    8    9 1
    15    8   33 1
    16    9   10 1
    17    9   34 1
    18    9   35 1
    19   10   11 2
    20   10   12 am
    21   12   13 1
    22   12   36 1
    23   13   18 ar
    24   13   14 ar
    25   14   15 ar
    26   14   37 1
    27   15   16 ar
    28   15   38 1
    29   16   17 ar
    30   16   19 1
    31   17   18 ar
    32   17   39 1
    33   18   40 1
    34   19   20 1
    35   19   41 1
    36   19   42 1
    37   20   21 1
    38   20   43 1
    39   20   44 1
    40   21   26 1
    41   21   22 1
    42   21   53 1
    43   22   23 1
    44   22   45 1
    45   22   46 1
    46   23   24 1
    47   23   47 1
    48   23   48 1
    49   24   25 1
    50   25   26 1
    51   25   49 1
    52   25   50 1
    53   26   51 1
    54   26   52 1
@<TRIPOS>MOLECULE
ZINC63916023
   46    48     0     0     0
SMALL
USER_CHARGES

@<TRIPOS>ATOM
      1 C1         -0.0166    1.3751    0.0096 C.ar      1 <0>        -0.1158
      2 C2          1.1704    2.0863    0.0021 C.ar      1 <0>        -0.0688
      3 C3          2.3828    1.4203   -0.0130 C.ar      1 <0>        -0.1655
      4 C4          2.4157    0.0409   -0.0212 C.ar      1 <0>        -0.0359
      5 C5          1.2221   -0.6824   -0.0136 C.ar      1 <0>        -0.1206
      6 C6          0.0021   -0.0041    0.0020 C.ar      1 <0>        -0.0562
      7 C7          1.2497   -2.1604   -0.0228 C.2       1 <0>         0.5548
      8 O1          2.3138   -2.7484   -0.0369 O.2       1 <0>        -0.5182
      9 N1          0.0954   -2.8560   -0.0155 N.am      1 <0>        -0.6298
     10 C8          0.1216   -4.2627   -0.0242 C.2       1 <0>        -0.0079
     11 C9          1.2704   -5.0675   -0.0342 C.2       1 <0>         0.0516
     12 N2          0.8950   -6.3207   -0.0397 N.2       1 <0>        -0.2485
     13 N3         -0.5051   -6.3623   -0.0333 N.pl3     1 <0>        -0.3590
     14 C10        -0.9605   -5.0828   -0.0183 C.2       1 <0>         0.0295
     15 C11        -1.3318   -7.5717   -0.0368 C.3       1 <0>         0.1188
     16 C12        -0.9475   -8.4394   -1.2075 C.2       1 <0>         0.5014
     17 O2         -0.0696   -8.0827   -1.9644 O.2       1 <0>        -0.5108
     18 N4         -1.5796   -9.6119   -1.4134 N.am      1 <0>        -0.8514
     19 C13         3.6706    2.2030   -0.0211 C.3       1 <0>         0.0490
     20 N5          4.1022    2.4500    1.3612 N.4       1 <0>        -0.3936
     21 C14         4.5190    1.1769    2.0028 C.3       1 <0>        -0.0081
     22 C15         5.4355    1.6467    3.1603 C.3       1 <0>        -0.1448
     23 C16         6.1867    2.8475    2.5409 C.3       1 <0>        -0.1450
     24 C17         5.2990    3.3188    1.3742 C.3       1 <0>        -0.0089
     25 H1         -0.9598    1.9011    0.0259 H         1 <0>         0.1448
     26 H2          1.1503    3.1661    0.0077 H         1 <0>         0.1379
     27 H3          3.3628   -0.4778   -0.0337 H         1 <0>         0.1459
     28 H4         -0.9251   -0.5579    0.0082 H         1 <0>         0.1383
     29 H5         -0.7535   -2.3868   -0.0042 H         1 <0>         0.4096
     30 H6          2.2906   -4.7131   -0.0373 H         1 <0>         0.2054
     31 H7         -1.9953   -4.7738   -0.0060 H         1 <0>         0.1805
     32 H8         -1.1742   -8.1222    0.8906 H         1 <0>         0.1204
     33 H9         -2.3823   -7.2935   -0.1202 H         1 <0>         0.1295
     34 H10        -2.2817   -9.8972   -0.8081 H         1 <0>         0.4040
     35 H11        -1.3323  -10.1704   -2.1669 H         1 <0>         0.4097
     36 H12         4.4384    1.6340   -0.5453 H         1 <0>         0.1381
     37 H13         3.5140    3.1550   -0.5284 H         1 <0>         0.1390
     38 H14         3.6534    0.6403    2.3910 H         1 <0>         0.1332
     39 H15         5.0746    0.5558    1.3001 H         1 <0>         0.1348
     40 H16         4.8419    1.9638    4.0178 H         1 <0>         0.0971
     41 H17         6.1339    0.8591    3.4433 H         1 <0>         0.1170
     42 H18         6.2989    3.6439    3.2767 H         1 <0>         0.1048
     43 H19         7.1626    2.5331    2.1708 H         1 <0>         0.1042
     44 H20         5.8397    3.2203    0.4329 H         1 <0>         0.1318
     45 H21         5.0030    4.3564    1.5286 H         1 <0>         0.1323
     46 H22         3.3557    2.8781    1.8880 H         1 <0>         0.4256
@<TRIPOS>BOND
     1    1    6 ar
     2    1    2 ar
     3    1   25 1
     4    2    3 ar
     5    2   26 1
     6    3    4 ar
     7    3   19 1
     8    4    5 ar
     9    4   27 1
    10    5    6 ar
    11    5    7 1
    12    6   28 1
    13    7    8 2
    14    7    9 am
    15    9   10 1
    16    9   29 1
    17   10   14 2
    18   10   11 1
    19   11   12 2
    20   11   30 1
    21   12   13 1
    22   13   14 1
    23   13   15 1
    24   14   31 1
    25   15   16 1
    26   15   32 1
    27   15   33 1
    28   16   17 2
    29   16   18 am
    30   18   34 1
    31   18   35 1
    32   19   20 1
    33   19   36 1
    34   19   37 1
    35   20   24 1
    36   20   21 1
    37   20   46 1
    38   21   22 1
    39   21   38 1
    40   21   39 1
    41   22   23 1
    42   22   40 1
    43   22   41 1
    44   23   24 1
    45   23   42 1
    46   23   43 1
    47   24   44 1
    48   24   45 1
@<TRIPOS>MOLECULE
ZINC05672483
   41    42     0     0     0
SMALL
USER_CHARGES
ethyl 3-hydrazino-3-imino-2-[5-(4-methoxyphenyl)-3H-1,3,4-oxadiazol-2-ylidene]-propanoate
@<TRIPOS>ATOM
      1 C1         -1.5756    2.2453    1.5437 C.3       1 <0>        -0.1547
      2 C2         -0.9668    1.3546    0.4587 C.3       1 <0>         0.0643
      3 O1         -1.4599    1.7577   -0.8206 O.3       1 <0>        -0.3568
      4 C3         -1.0171    1.0680   -1.8932 C.2       1 <0>         0.5503
      5 O2         -0.2328    0.1486   -1.7445 O.2       1 <0>        -0.5309
      6 C4         -1.4635    1.4128   -3.1880 C.2       1 <0>        -0.3913
      7 C5         -0.9205    0.7733   -4.3093 C.2       1 <0>         0.4593
      8 N1         -0.0444   -0.2561   -4.2968 N.pl3     1 <0>        -0.4555
      9 N2          0.2250   -0.5756   -5.6359 N.2       1 <0>        -0.2540
     10 C6         -0.4671    0.2357   -6.3845 C.2       1 <0>         0.3308
     11 O3         -1.1793    1.0666   -5.5944 O.3       1 <0>        -0.2166
     12 C7         -0.4751    0.2419   -7.8629 C.ar      1 <0>        -0.1110
     13 C8         -1.2666    1.1604   -8.5545 C.ar      1 <0>        -0.0210
     14 C9         -1.2681    1.1658   -9.9329 C.ar      1 <0>        -0.2136
     15 C10        -0.4913    0.2524  -10.6334 C.ar      1 <0>         0.1838
     16 C11         0.2938   -0.6662   -9.9489 C.ar      1 <0>        -0.1521
     17 C12         0.3043   -0.6747   -8.5706 C.ar      1 <0>        -0.0102
     18 O4         -0.4989    0.2576  -11.9919 O.3       1 <0>        -0.3028
     19 C13        -1.3288    1.2289  -12.6322 C.3       1 <0>         0.0193
     20 C14        -2.4971    2.4418   -3.3584 C.cat     1 <0>         0.6360
     21 N3         -3.7747    2.2220   -2.8844 N.pl3     1 <0>        -0.4990
     22 N4         -4.7079    3.2174   -2.9489 N.3       1 <0>        -0.6102
     23 H1         -1.2996    3.2834    1.3586 H         1 <0>         0.0675
     24 H2         -2.6611    2.1491    1.5259 H         1 <0>         0.0652
     25 H3         -1.1994    1.9378    2.5194 H         1 <0>         0.0891
     26 H4         -1.2427    0.3165    0.6438 H         1 <0>         0.0758
     27 H5          0.1188    1.4508    0.4764 H         1 <0>         0.0764
     28 H6          0.3269   -0.6900   -3.5127 H         1 <0>         0.4864
     29 H7         -1.8741    1.8684   -8.0104 H         1 <0>         0.1386
     30 H8         -1.8773    1.8787  -10.4688 H         1 <0>         0.1470
     31 H9          0.8966   -1.3750  -10.4972 H         1 <0>         0.1532
     32 H10         0.9145   -1.3898   -8.0389 H         1 <0>         0.1510
     33 H11        -1.0115    2.2291  -12.3372 H         1 <0>         0.0638
     34 H12        -1.2423    1.1245  -13.7138 H         1 <0>         0.1117
     35 H13        -2.3658    1.0741  -12.3339 H         1 <0>         0.0637
     36 H14        -1.3582    3.7887   -4.3867 H         1 <0>         0.4528
     37 H15        -4.0098    1.3605   -2.5055 H         1 <0>         0.4394
     38 H16        -5.5901    2.9114   -2.5668 H         1 <0>         0.3972
     39 H17        -4.3811    4.0502   -2.4822 H         1 <0>         0.3621
     40 N5         -2.2646    3.6084   -3.9547 N.pl3     1 <0>        -0.7522
     41 H18        -2.9975    4.3270   -3.9802 H         1 <0>         0.4472
@<TRIPOS>BOND
     1    1    2 1
     2    1   23 1
     3    1   24 1
     4    1   25 1
     5    2    3 1
     6    2   26 1
     7    2   27 1
     8    3    4 1
     9    4    5 2
    10    4    6 1
    11    6    7 2
    12    6   20 1
    13    7   11 1
    14    7    8 1
    15    8    9 1
    16    8   28 1
    17    9   10 2
    18   10   11 1
    19   10   12 1
    20   12   17 ar
    21   12   13 ar
    22   13   14 ar
    23   13   29 1
    24   14   15 ar
    25   14   30 1
    26   15   16 ar
    27   15   18 1
    28   16   17 ar
    29   16   31 1
    30   17   32 1
    31   18   19 1
    32   19   33 1
    33   19   34 1
    34   19   35 1
    35   20   21 1
    36   20   40 2
    37   21   22 1
    38   21   37 1
    39   22   38 1
    40   22   39 1
    41   36   40 1
    42   40   41 1
@<TRIPOS>MOLECULE
ZINC36746140
   43    43     0     0     0
SMALL
USER_CHARGES

@<TRIPOS>ATOM
      1 C1         -0.0187    1.5258    0.0104 C.3       1 <0>        -0.1896
      2 C2          0.0021   -0.0041    0.0020 C.3       1 <0>        -0.0142
      3 N1         -1.3761   -0.5125    0.0124 N.4       1 <0>        -0.5101
      4 C3         -1.3562   -1.9814    0.0044 C.3       1 <0>         0.0737
      5 H1         -0.7699   -2.3321   -0.8450 H         1 <0>         0.1525
      6 C4         -0.7272   -2.4900    1.3031 C.3       1 <0>        -0.1809
      7 C5         -2.7657   -2.5023   -0.1088 C.ar      1 <0>        -0.0892
      8 C6         -3.7894   -1.8822    0.5830 C.ar      1 <0>        -0.1433
      9 C7         -5.0823   -2.3600    0.4792 C.ar      1 <0>        -0.0025
     10 C8         -5.3518   -3.4576   -0.3168 C.ar      1 <0>        -0.6598
     11 C9         -4.3283   -4.0771   -1.0093 C.ar      1 <0>        -0.0088
     12 C10        -3.0360   -3.5967   -0.9089 C.ar      1 <0>        -0.1060
     13 S1         -6.9997   -4.0673   -0.4482 S.o2      1 <0>         2.6871
     14 O1         -6.8983   -5.4341   -0.8235 O.2       1 <0>        -0.9360
     15 O2         -7.6826   -3.6482    0.7253 O.2       1 <0>        -0.9399
     16 N2         -7.7134   -3.2795   -1.7180 N.pl3     1 <0>        -1.1079
     17 C11        -7.2137   -3.4824   -3.0801 C.3       1 <0>         0.1273
     18 C12        -8.2440   -2.9618   -4.0842 C.3       1 <0>        -0.6483
     19 S2         -7.6251   -3.2130   -5.7708 S.o2      1 <0>         2.6239
     20 O3         -6.5030   -2.3748   -6.0103 O.2       1 <0>        -0.9587
     21 O4         -7.5696   -4.6010   -6.0701 O.2       1 <0>        -0.9462
     22 N3         -8.8161   -2.6160   -6.7544 N.pl3     1 <0>        -1.2456
     23 H2          1.0039    1.9031    0.0027 H         1 <0>         0.1093
     24 H3         -0.5459    1.8868   -0.8726 H         1 <0>         0.0815
     25 H4         -0.5289    1.8773    0.9072 H         1 <0>         0.0809
     26 H5          0.5123   -0.3556   -0.8948 H         1 <0>         0.1339
     27 H6          0.5293   -0.3651    0.8851 H         1 <0>         0.1345
     28 H7         -1.8484   -0.1871    0.8426 H         1 <0>         0.4249
     29 H8         -1.3135   -2.1393    2.1524 H         1 <0>         0.0849
     30 H9         -0.7124   -3.5799    1.2971 H         1 <0>         0.1100
     31 H10         0.2923   -2.1133    1.3849 H         1 <0>         0.0901
     32 H11        -3.5788   -1.0247    1.2049 H         1 <0>         0.1321
     33 H12        -5.8820   -1.8760    1.0203 H         1 <0>         0.1544
     34 H13        -4.5388   -4.9348   -1.6310 H         1 <0>         0.1572
     35 H14        -2.2370   -4.0784   -1.4529 H         1 <0>         0.1485
     36 H15        -8.4624   -2.6838   -1.5599 H         1 <0>         0.4272
     37 H16        -6.2763   -2.9409   -3.2076 H         1 <0>         0.0819
     38 H17        -7.0451   -4.5457   -3.2507 H         1 <0>         0.1018
     39 H18        -9.1814   -3.5032   -3.9567 H         1 <0>         0.1492
     40 H19        -8.4125   -1.8985   -3.9136 H         1 <0>         0.1470
     41 H20        -8.5875   -2.2364   -7.6173 H         1 <0>         0.4256
     42 H21        -9.7423   -2.6458   -6.4677 H         1 <0>         0.4170
     43 H22        -1.8641   -0.1783   -0.8050 H         1 <0>         0.4308
@<TRIPOS>BOND
     1    1    2 1
     2    1   23 1
     3    1   24 1
     4    1   25 1
     5    2    3 1
     6    2   26 1
     7    2   27 1
     8    3    4 1
     9    3   28 1
    10    3   43 1
    11    4    5 1
    12    4    6 1
    13    4    7 1
    14    6   29 1
    15    6   30 1
    16    6   31 1
    17    7   12 ar
    18    7    8 ar
    19    8    9 ar
    20    8   32 1
    21    9   10 ar
    22    9   33 1
    23   10   11 ar
    24   10   13 1
    25   11   12 ar
    26   11   34 1
    27   12   35 1
    28   13   14 2
    29   13   15 2
    30   13   16 1
    31   16   17 1
    32   16   36 1
    33   17   18 1
    34   17   37 1
    35   17   38 1
    36   18   19 1
    37   18   39 1
    38   18   40 1
    39   19   20 2
    40   19   21 2
    41   19   22 1
    42   22   41 1
    43   22   42 1
@<TRIPOS>MOLECULE
ZINC40686760
   45    47     0     0     0
SMALL
USER_CHARGES

@<TRIPOS>ATOM
      1 C1         -0.0167    1.3776    0.0096 C.ar      1 <0>        -0.1734
      2 C2          1.1849    2.0698    0.0019 C.ar      1 <0>        -0.0554
      3 C3          2.3651    1.3426   -0.0133 C.ar      1 <0>        -0.1685
      4 C4          2.3054   -0.0383   -0.0202 C.ar      1 <0>         0.1194
      5 N1          1.1443   -0.6632   -0.0129 N.ar      1 <0>        -0.4843
      6 C5          0.0021   -0.0041    0.0020 C.ar      1 <0>         0.1088
      7 C6          3.6964    2.0488   -0.0227 C.3       1 <0>         0.1831
      8 N2          4.1412    2.2707    1.3554 N.pl3     1 <0>        -0.7133
      9 C7          5.3507    2.9097    1.6008 C.ar      1 <0>         0.4089
     10 C8          5.7878    3.1215    2.9097 C.ar      1 <0>        -0.0053
     11 C9          7.0102    3.7677    3.0999 C.ar      1 <0>         0.3959
     12 N3          7.7077    4.1546    2.0343 N.ar      1 <0>        -0.5759
     13 C10         7.2590    3.9352    0.8151 C.ar      1 <0>         0.3294
     14 N4          6.1129    3.3242    0.5917 N.ar      1 <0>        -0.5678
     15 N5          7.4915    4.0039    4.3822 N.pl3     1 <0>        -0.7261
     16 C11         8.7760    4.6831    4.5688 C.3       1 <0>         0.1423
     17 C12         9.0698    4.8166    6.0644 C.3       1 <0>        -0.1559
     18 C13        10.4113    5.5259    6.2594 C.3       1 <0>         0.0961
     19 N6         10.6926    5.6537    7.6914 N.pl3     1 <0>        -0.4078
     20 C14        10.3267    6.6948    8.5013 C.2       1 <0>         0.0256
     21 C15        10.7834    6.4076    9.7353 C.2       1 <0>         0.0037
     22 N7         11.4109    5.2235    9.6803 N.pl3     1 <0>        -0.4763
     23 C16        11.3561    4.7636    8.4603 C.cat     1 <0>         0.2884
     24 N8          5.0182    2.6964    4.0051 N.pl3     1 <0>        -0.8775
     25 H1         -0.9552    1.9117    0.0259 H         1 <0>         0.1395
     26 H2          1.2009    3.1496    0.0072 H         1 <0>         0.1362
     27 H3          3.2203   -0.6121   -0.0320 H         1 <0>         0.1562
     28 H4         -0.9294   -0.5505    0.0083 H         1 <0>         0.1598
     29 H5          4.4293    1.4355   -0.5468 H         1 <0>         0.0800
     30 H6          3.5953    3.0079   -0.5308 H         1 <0>         0.0784
     31 H7          3.5916    1.9716    2.0965 H         1 <0>         0.4039
     32 H8          7.8504    4.2627   -0.0271 H         1 <0>         0.1963
     33 H9          6.9769    3.7191    5.1535 H         1 <0>         0.4027
     34 H10         9.5666    4.1023    4.0937 H         1 <0>         0.0735
     35 H11         8.7319    5.6743    4.1174 H         1 <0>         0.0736
     36 H12         8.2792    5.3974    6.5396 H         1 <0>         0.0860
     37 H13         9.1139    3.8254    6.5159 H         1 <0>         0.0840
     38 H14        11.2019    4.9451    5.7842 H         1 <0>         0.1272
     39 H15        10.3672    6.5171    5.8079 H         1 <0>         0.1298
     40 H16         9.7777    7.5771    8.2072 H         1 <0>         0.2231
     41 H17        10.6650    7.0230   10.6149 H         1 <0>         0.2240
     42 H18        11.7745    3.8275    8.1211 H         1 <0>         0.2600
     43 H19         4.1703    2.2488    3.8576 H         1 <0>         0.3956
     44 H20         5.3345    2.8504    4.9090 H         1 <0>         0.3910
     45 H21        11.8353    4.7776   10.4300 H         1 <0>         0.4656
@<TRIPOS>BOND
     1    1    6 ar
     2    1    2 ar
     3    1   25 1
     4    2    3 ar
     5    2   26 1
     6    3    4 ar
     7    3    7 1
     8    4    5 ar
     9    4   27 1
    10    5    6 ar
    11    6   28 1
    12    7    8 1
    13    7   29 1
    14    7   30 1
    15    8    9 1
    16    8   31 1
    17    9   14 ar
    18    9   10 ar
    19   10   11 ar
    20   10   24 1
    21   11   12 ar
    22   11   15 1
    23   12   13 ar
    24   13   14 ar
    25   13   32 1
    26   15   16 1
    27   15   33 1
    28   16   17 1
    29   16   34 1
    30   16   35 1
    31   17   18 1
    32   17   36 1
    33   17   37 1
    34   18   19 1
    35   18   38 1
    36   18   39 1
    37   19   23 1
    38   19   20 1
    39   20   21 2
    40   20   40 1
    41   21   22 1
    42   21   41 1
    43   22   23 2
    44   22   45 1
    45   23   42 1
    46   24   43 1
    47   24   44 1
@<TRIPOS>MOLECULE
ZINC43215757
   47    49     0     0     0
SMALL
USER_CHARGES

@<TRIPOS>ATOM
      1 C1         -0.0168    1.3842    0.0097 C.ar      1 <0>         0.0310
      2 C2          1.1898    2.0609    0.0018 C.ar      1 <0>        -0.2377
      3 C3          2.3742    1.3317   -0.0135 C.ar      1 <0>         0.4427
      4 N1          2.3505    0.0077   -0.0203 N.ar      1 <0>        -0.5276
      5 C4          1.2148   -0.6639   -0.0131 C.ar      1 <0>         0.2367
      6 C5          0.0021   -0.0041    0.0020 C.ar      1 <0>        -0.1652
      7 N2         -1.2650   -0.7689    0.0105 N.pl3     1 <0>         0.0470
      8 O1         -2.3235   -0.1849    0.0241 O.2       1 <0>        -0.1649
      9 O2         -1.2415   -1.9776    0.0038 O.3       1 <0>        -0.1585
     10 N3          3.5937    1.9988   -0.0220 N.pl3     1 <0>        -0.7038
     11 C6          3.6276    3.4634   -0.0149 C.3       1 <0>         0.1105
     12 C7          5.0814    3.9400   -0.0267 C.3       1 <0>         0.1069
     13 N4          5.1152    5.4046   -0.0196 N.am      1 <0>        -0.7103
     14 C8          6.2976    6.0514   -0.0279 C.2       1 <0>         0.6038
     15 O3          7.3364    5.4193   -0.0412 O.2       1 <0>        -0.5193
     16 C9          6.3317    7.5252   -0.0208 C.2       1 <0>        -0.0711
     17 C10         7.4446    8.3083   -0.0337 C.2       1 <0>         0.0406
     18 O4          7.0259    9.5838   -0.0215 O.3       1 <0>        -0.1930
     19 C11         5.6855    9.5850   -0.0016 C.2       1 <0>         0.1803
     20 N5          5.2562    8.3586   -0.0061 N.2       1 <0>        -0.4409
     21 C12         4.8142   10.8144    0.0178 C.3       1 <0>         0.0041
     22 C13         5.0950   11.6607   -1.2273 C.3       1 <0>        -0.1484
     23 C14         4.2659   12.9452   -1.1618 C.3       1 <0>        -0.0037
     24 N6          4.6287   13.7052    0.0404 N.4       1 <0>        -0.5080
     25 C15         4.2956   12.9283    1.2403 C.3       1 <0>        -0.0037
     26 C16         5.1258   11.6432    1.2672 C.3       1 <0>        -0.1485
     27 H1         -0.9522    1.9236    0.0259 H         1 <0>         0.1643
     28 H2          1.2118    3.1406    0.0070 H         1 <0>         0.1526
     29 H3          1.2340   -1.7437   -0.0194 H         1 <0>         0.1881
     30 H4          4.4223    1.4946   -0.0326 H         1 <0>         0.4173
     31 H5          3.1136    3.8430   -0.8980 H         1 <0>         0.0806
     32 H6          3.1310    3.8340    0.8818 H         1 <0>         0.0806
     33 H7          5.5953    3.5605    0.8564 H         1 <0>         0.0855
     34 H8          5.5780    3.5695   -0.9234 H         1 <0>         0.0855
     35 H9          4.2866    5.9089   -0.0090 H         1 <0>         0.4113
     36 H10         8.4696    7.9684   -0.0502 H         1 <0>         0.2395
     37 H11         3.7654   10.5177    0.0294 H         1 <0>         0.1325
     38 H12         6.1547   11.9130   -1.2645 H         1 <0>         0.0989
     39 H13         4.8228   11.0969   -2.1196 H         1 <0>         0.1213
     40 H14         4.4632   13.5500   -2.0468 H         1 <0>         0.1414
     41 H15         3.2064   12.6917   -1.1248 H         1 <0>         0.1368
     42 H16         5.6192   13.8972    0.0295 H         1 <0>         0.4301
     43 H17         4.5149   13.5207    2.1286 H         1 <0>         0.1414
     44 H18         3.2355   12.6752    1.2260 H         1 <0>         0.1368
     45 H19         4.8757   11.0669    2.1580 H         1 <0>         0.1214
     46 H20         6.1862   11.8951    1.2818 H         1 <0>         0.0988
     47 H21         4.1195   14.5762    0.0528 H         1 <0>         0.4362
@<TRIPOS>BOND
     1    1    6 ar
     2    1    2 ar
     3    1   27 1
     4    2    3 ar
     5    2   28 1
     6    3    4 ar
     7    3   10 1
     8    4    5 ar
     9    5    6 ar
    10    5   29 1
    11    6    7 1
    12    7    8 2
    13    7    9 1
    14   10   11 1
    15   10   30 1
    16   11   12 1
    17   11   31 1
    18   11   32 1
    19   12   13 1
    20   12   33 1
    21   12   34 1
    22   13   14 am
    23   13   35 1
    24   14   15 2
    25   14   16 1
    26   16   20 1
    27   16   17 2
    28   17   18 1
    29   17   36 1
    30   18   19 1
    31   19   20 2
    32   19   21 1
    33   21   26 1
    34   21   22 1
    35   21   37 1
    36   22   23 1
    37   22   38 1
    38   22   39 1
    39   23   24 1
    40   23   40 1
    41   23   41 1
    42   24   25 1
    43   24   42 1
    44   24   47 1
    45   25   26 1
    46   25   43 1
    47   25   44 1
    48   26   45 1
    49   26   46 1
@<TRIPOS>MOLECULE
ZINC06505471
   35    36     0     0     0
SMALL
USER_CHARGES

@<TRIPOS>ATOM
      1 C1          0.0648    1.2435   -0.6206 C.ar      1 <0>        -0.0810
      2 C2          1.2501    1.9528   -0.6187 C.ar      1 <0>        -0.1003
      3 C3          2.3817    1.4102   -0.0241 C.ar      1 <0>         0.1395
      4 C4          2.3179    0.1537    0.5679 C.ar      1 <0>        -0.0448
      5 C5          1.1294   -0.5509    0.5627 C.ar      1 <0>        -0.0776
      6 C6          0.0037   -0.0068   -0.0310 C.ar      1 <0>        -0.0282
      7 Cl1        -1.4881   -0.8948   -0.0357 Cl        1 <0>        -0.0376
      8 Cl2         3.7299   -0.5292    1.3120 Cl        1 <0>        -0.0384
      9 N1          3.5829    2.1258   -0.0212 N.am      1 <0>        -0.6188
     10 C7          3.5667    3.4702   -0.1160 C.2       1 <0>         0.5272
     11 O1          2.5093    4.0670   -0.1029 O.2       1 <0>        -0.4774
     12 C8          4.8465    4.2242   -0.2370 C.2       1 <0>         0.5282
     13 O2          5.9046    3.6270   -0.2500 O.2       1 <0>        -0.4604
     14 N2          4.8303    5.5685   -0.3318 N.am      1 <0>        -0.5252
     15 N3          6.0334    6.2773   -0.4455 N.pl3     1 <0>        -0.3814
     16 C9          6.0178    7.5701   -0.5367 C.cat     1 <0>         0.5133
     17 C10         7.3119    8.3326   -0.6590 C.3       1 <0>         0.1553
     18 N4          7.8036    8.6776    0.6772 N.pl3     1 <0>        -0.4204
     19 C11         9.0142    8.3941    1.1883 C.2       1 <0>         0.2835
     20 N5          9.0629    8.8714    2.4054 N.2       1 <0>        -0.5188
     21 C12         7.9076    9.4637    2.7053 C.2       1 <0>         0.2405
     22 N6          7.1060    9.3756    1.6765 N.2       1 <0>        -0.3251
     23 N7          4.8165    8.2482   -0.5218 N.pl3     1 <0>        -0.7586
     24 H1         -0.8165    1.6672   -1.0791 H         1 <0>         0.1522
     25 H2          1.2969    2.9284   -1.0796 H         1 <0>         0.1631
     26 H3          1.0788   -1.5270    1.0223 H         1 <0>         0.1575
     27 H4          4.4279    1.6548    0.0492 H         1 <0>         0.4309
     28 H5          3.9856    6.0453   -0.3213 H         1 <0>         0.4503
     29 H6          8.0507    7.7149   -1.1697 H         1 <0>         0.1669
     30 H7          7.1434    9.2450   -1.2309 H         1 <0>         0.1624
     31 H8          9.8078    7.8642    0.6826 H         1 <0>         0.2343
     32 H9          7.6731    9.9426    3.6444 H         1 <0>         0.2305
     33 H10         3.9835    7.7574   -0.4431 H         1 <0>         0.4264
     34 H11         4.8048    9.2157   -0.5901 H         1 <0>         0.4554
     35 H12         6.8781    5.8005   -0.4559 H         1 <0>         0.4765
@<TRIPOS>BOND
     1    1    6 ar
     2    1    2 ar
     3    1   24 1
     4    2    3 ar
     5    2   25 1
     6    3    4 ar
     7    3    9 1
     8    4    5 ar
     9    4    8 1
    10    5    6 ar
    11    5   26 1
    12    6    7 1
    13    9   10 am
    14    9   27 1
    15   10   11 2
    16   10   12 1
    17   12   13 2
    18   12   14 am
    19   14   15 1
    20   14   28 1
    21   15   16 2
    22   15   35 1
    23   16   17 1
    24   16   23 1
    25   17   18 1
    26   17   29 1
    27   17   30 1
    28   18   22 1
    29   18   19 1
    30   19   20 2
    31   19   31 1
    32   20   21 1
    33   21   22 2
    34   21   32 1
    35   23   33 1
    36   23   34 1
@<TRIPOS>MOLECULE
ZINC08718923
   49    49     0     0     0
SMALL
USER_CHARGES
2-[[4-(dimethylsulfamoyl)phenyl]carbamoylmethyl-isopropyl-amino]acetamide
@<TRIPOS>ATOM
      1 C1          4.8379   -0.0075    0.9555 C.3       1 <0>        -0.1824
      2 C2          4.8914    1.2555    0.0936 C.3       1 <0>         0.0177
      3 C3          5.1517    0.8679   -1.3635 C.3       1 <0>        -0.1814
      4 C4          3.4812    2.6465    1.4860 C.3       1 <0>        -0.0343
      5 C5          4.5101    3.7432    1.5842 C.2       1 <0>         0.5131
      6 O1          5.2758    3.9405    0.6646 O.2       1 <0>        -0.5268
      7 N1          4.5794    4.5048    2.6940 N.am      1 <0>        -0.8239
      8 C6          2.4822    1.0570   -0.0430 C.3       1 <0>        -0.0317
      9 C7          1.2645    1.8545   -0.4335 C.2       1 <0>         0.5000
     10 O2          1.3516    3.0530   -0.5978 O.2       1 <0>        -0.5031
     11 N2          0.0788    1.2358   -0.6002 N.am      1 <0>        -0.6486
     12 C8         -1.0705    1.9871   -0.8694 C.ar      1 <0>         0.1739
     13 C9         -2.2980    1.5893   -0.3559 C.ar      1 <0>        -0.1512
     14 C10        -3.4295    2.3367   -0.6180 C.ar      1 <0>         0.0010
     15 C11        -3.3432    3.4730   -1.4013 C.ar      1 <0>        -0.6787
     16 C12        -2.1235    3.8683   -1.9192 C.ar      1 <0>         0.0001
     17 C13        -0.9872    3.1290   -1.6554 C.ar      1 <0>        -0.1361
     18 S1         -4.7904    4.4194   -1.7398 S.o2      1 <0>         2.6886
     19 O3         -5.7096    4.1448   -0.6916 O.2       1 <0>        -0.9462
     20 O4         -4.3524    5.7367   -2.0434 O.2       1 <0>        -0.9477
     21 N3         -5.4594    3.8115   -3.1274 N.pl3     1 <0>        -1.0028
     22 C14        -6.4467    2.7318   -3.0525 C.3       1 <0>         0.0896
     23 C15        -5.0640    4.3536   -4.4297 C.3       1 <0>         0.0817
     24 H1          4.0347   -0.6544    0.6026 H         1 <0>         0.0817
     25 H2          5.7883   -0.5364    0.8845 H         1 <0>         0.1108
     26 H3          4.6525    0.2687    1.9935 H         1 <0>         0.0781
     27 H4          5.6946    1.9024    0.4464 H         1 <0>         0.1543
     28 H5          5.2426    1.7699   -1.9687 H         1 <0>         0.0864
     29 H6          6.0756    0.2930   -1.4270 H         1 <0>         0.1111
     30 H7          4.3223    0.2647   -1.7327 H         1 <0>         0.0761
     31 H8          2.4831    3.0758    1.5735 H         1 <0>         0.1598
     32 H9          3.6391    1.9272    2.2896 H         1 <0>         0.1635
     33 H10         3.9670    4.3471    3.4295 H         1 <0>         0.4136
     34 H11         5.2417    5.2107    2.7572 H         1 <0>         0.4249
     35 H12         2.2731    0.4977    0.8689 H         1 <0>         0.1687
     36 H13         2.7346    0.3632   -0.8449 H         1 <0>         0.1710
     37 H14         0.0229    0.2695   -0.5374 H         1 <0>         0.4246
     38 H15        -2.3669    0.6991    0.2517 H         1 <0>         0.1421
     39 H16        -4.3834    2.0309   -0.2144 H         1 <0>         0.1514
     40 H17        -2.0593    4.7565   -2.5304 H         1 <0>         0.1492
     41 H18        -0.0347    3.4387   -2.0595 H         1 <0>         0.1480
     42 H19        -7.4467    3.1585   -2.9741 H         1 <0>         0.0666
     43 H20        -6.3830    2.1182   -3.9512 H         1 <0>         0.0774
     44 H21        -6.2452    2.1152   -2.1766 H         1 <0>         0.0718
     45 H22        -4.3264    5.1431   -4.2859 H         1 <0>         0.0859
     46 H23        -4.6319    3.5590   -5.0379 H         1 <0>         0.0640
     47 H24        -5.9397    4.7620   -4.9343 H         1 <0>         0.0728
     48 N4          3.6101    1.9884    0.1688 N.4       1 <0>        -0.3688
     49 H25         3.5926    2.7058   -0.5656 H         1 <0>         0.4440
@<TRIPOS>BOND
     1    1    2 1
     2    1   24 1
     3    1   25 1
     4    1   26 1
     5    2    3 1
     6    2   27 1
     7    2   48 1
     8    3   28 1
     9    3   29 1
    10    3   30 1
    11    4    5 1
    12    4   31 1
    13    4   32 1
    14    4   48 1
    15    5    6 2
    16    5    7 am
    17    7   33 1
    18    7   34 1
    19    8    9 1
    20    8   35 1
    21    8   36 1
    22    8   48 1
    23    9   10 2
    24    9   11 am
    25   11   12 1
    26   11   37 1
    27   12   17 ar
    28   12   13 ar
    29   13   14 ar
    30   13   38 1
    31   14   15 ar
    32   14   39 1
    33   15   16 ar
    34   15   18 1
    35   16   17 ar
    36   16   40 1
    37   17   41 1
    38   18   19 2
    39   18   20 2
    40   18   21 1
    41   21   22 1
    42   21   23 1
    43   22   42 1
    44   22   43 1
    45   22   44 1
    46   23   45 1
    47   23   46 1
    48   23   47 1
    49   48   49 1
@<TRIPOS>MOLECULE
ZINC28535005
   45    47     0     0     0
SMALL
USER_CHARGES
2-[3-amino-4-(4-pyridylamino)-5-thioxo-1,2,4-triazol-1-yl]-1-(4-ethoxyphenyl)ethanone
@<TRIPOS>ATOM
      1 C1         -8.7040    1.4164   -7.1497 C.3       1 <0>        -0.1577
      2 C2         -7.4835    1.8084   -6.3146 C.3       1 <0>         0.0486
      3 O1         -7.1597    0.7454   -5.4162 O.3       1 <0>        -0.3069
      4 C3         -6.0942    0.9337   -4.5978 C.ar      1 <0>         0.1783
      5 C4         -5.7258   -0.0621   -3.6995 C.ar      1 <0>        -0.1656
      6 C5         -4.6497    0.1231   -2.8702 C.ar      1 <0>        -0.0098
      7 C6         -3.9209    1.3175   -2.9292 C.ar      1 <0>        -0.2170
      8 C7         -4.2992    2.3191   -3.8318 C.ar      1 <0>        -0.0273
      9 C8         -5.3737    2.1217   -4.6604 C.ar      1 <0>        -0.2213
     10 C9         -2.7674    1.5212   -2.0433 C.2       1 <0>         0.4013
     11 O2         -2.4445    0.6543   -1.2589 O.2       1 <0>        -0.4479
     12 C10        -1.9849    2.8075   -2.1090 C.3       1 <0>         0.0948
     13 N1         -0.8927    2.7650   -1.1335 N.pl3     1 <0>        -0.3459
     14 C11         0.3567    2.3057   -1.3526 C.2       1 <0>         0.4703
     15 S1          0.9560    1.6663   -2.8234 S.2       1 <0>        -0.5344
     16 N2          1.0491    2.4471   -0.2049 N.pl3     1 <0>        -0.3341
     17 C12         0.2142    2.9973    0.7396 C.2       1 <0>         0.5394
     18 N3         -0.9542    3.1913    0.2005 N.2       1 <0>        -0.3164
     19 N4          0.5601    3.2954    2.0493 N.pl3     1 <0>        -0.8363
     20 N5          2.3904    2.0939   -0.0075 N.pl3     1 <0>        -0.4780
     21 C13         2.7179    0.8029    0.3959 C.ar      1 <0>         0.3186
     22 C14         1.7233   -0.1183    0.7236 C.ar      1 <0>        -0.1949
     23 C15         2.0896   -1.3889    1.1147 C.ar      1 <0>         0.1797
     24 N6          3.3615   -1.7336    1.1898 N.ar      1 <0>        -0.4993
     25 C16         4.3318   -0.8895    0.8927 C.ar      1 <0>         0.1747
     26 C17         4.0495    0.3983    0.4885 C.ar      1 <0>        -0.1860
     27 H1         -8.9532    2.2347   -7.8413 H         1 <0>         0.0843
     28 H2         -9.5584    1.2263   -6.4835 H         1 <0>         0.0696
     29 H3         -8.4778    0.5064   -7.7248 H         1 <0>         0.0697
     30 H4         -6.6291    1.9985   -6.9808 H         1 <0>         0.0690
     31 H5         -7.7096    2.7184   -5.7395 H         1 <0>         0.0687
     32 H6         -6.2886   -0.9829   -3.6549 H         1 <0>         0.1417
     33 H7         -4.3645   -0.6508   -2.1730 H         1 <0>         0.1404
     34 H8         -3.7434    3.2440   -3.8777 H         1 <0>         0.1351
     35 H9         -5.6639    2.8919   -5.3597 H         1 <0>         0.1399
     36 H10        -1.5692    2.9325   -3.1197 H         1 <0>         0.1547
     37 H11        -2.6495    3.6532   -1.8787 H         1 <0>         0.1473
     38 H12        -0.1849    3.7357    2.7283 H         1 <0>         0.4658
     39 H13         1.5794    3.0915    2.4090 H         1 <0>         0.4403
     40 H14         3.1847    2.8370   -0.1714 H         1 <0>         0.4860
     41 H15         0.6808    0.1584    0.6683 H         1 <0>         0.1661
     42 H16         1.3261   -2.1100    1.3668 H         1 <0>         0.2069
     43 H17         5.3600   -1.2115    0.9673 H         1 <0>         0.2117
     44 H18         4.8482    1.0841    0.2475 H         1 <0>         0.1863
     45 H19         3.6381   -2.7498    1.5074 H         1 <0>         0.4898
@<TRIPOS>BOND
     1    1    2 1
     2    1   27 1
     3    1   28 1
     4    1   29 1
     5    2    3 1
     6    2   30 1
     7    2   31 1
     8    3    4 1
     9    4    9 ar
    10    4    5 ar
    11    5    6 ar
    12    5   32 1
    13    6    7 ar
    14    6   33 1
    15    7    8 ar
    16    7   10 1
    17    8    9 ar
    18    8   34 1
    19    9   35 1
    20   10   11 2
    21   10   12 1
    22   12   13 1
    23   12   36 1
    24   12   37 1
    25   13   18 1
    26   13   14 1
    27   14   15 2
    28   14   16 1
    29   16   17 1
    30   16   20 1
    31   17   18 2
    32   17   19 1
    33   19   38 1
    34   19   39 1
    35   20   21 1
    36   20   40 1
    37   21   26 ar
    38   21   22 ar
    39   22   23 ar
    40   22   41 1
    41   23   24 ar
    42   23   42 1
    43   24   25 ar
    44   24   45 1
    45   25   26 ar
    46   25   43 1
    47   26   44 1
@<TRIPOS>MOLECULE
ZINC45495220
   54    56     0     0     0
SMALL
USER_CHARGES

@<TRIPOS>ATOM
      1 C1         -0.1524    1.4404    0.0541 C.ar      1 <0>        -0.0429
      2 C2          1.0213    2.1598    0.0583 C.ar      1 <0>        -0.1493
      3 C3          2.2444    1.4990    0.0527 C.ar      1 <0>         0.1527
      4 C4          2.2892    0.1095    0.0423 C.ar      1 <0>        -0.2176
      5 C5          1.1212   -0.6192    0.0379 C.ar      1 <0>        -0.0518
      6 C6         -0.1129    0.0413    0.0440 C.ar      1 <0>        -0.1316
      7 C7         -1.3631   -0.7319    0.0399 C.2       1 <0>         0.0214
      8 C8         -1.3223   -2.0810    0.0303 C.2       1 <0>        -0.2483
      9 C9         -2.5663   -2.8502    0.0262 C.2       1 <0>         0.5581
     10 O1         -3.6383   -2.2738    0.0315 O.2       1 <0>        -0.5311
     11 N1         -2.5255   -4.1973    0.0165 N.am      1 <0>        -0.7331
     12 C10        -3.7715   -4.9678    0.0125 C.3       1 <0>         0.1440
     13 C11        -3.4515   -6.4404    0.0016 C.ar      1 <0>         0.0528
     14 C12        -3.2964   -7.1245   -1.1971 C.ar      1 <0>        -0.1598
     15 C13        -3.0030   -8.4729   -1.1729 C.ar      1 <0>         0.1531
     16 N2         -2.8690   -9.1161   -0.0283 N.ar      1 <0>        -0.5056
     17 C14        -3.0097   -8.4996    1.1349 C.ar      1 <0>         0.4487
     18 C15        -3.3000   -7.1398    1.1850 C.ar      1 <0>        -0.1862
     19 N3         -2.8604   -9.2161    2.3167 N.pl3     1 <0>        -0.5897
     20 C16        -2.8869   -8.5379    3.6223 C.3       1 <0>         0.0731
     21 C17        -3.8826   -9.2714    4.5280 C.3       1 <0>         0.0423
     22 O2         -3.5664  -10.6656    4.5432 O.3       1 <0>        -0.3628
     23 C18        -3.6777  -11.3048    3.2693 C.3       1 <0>         0.0463
     24 C19        -2.6772  -10.6761    2.2993 C.3       1 <0>         0.0605
     25 O3          3.3988    2.2129    0.0569 O.3       1 <0>        -0.2840
     26 C20         4.6203    1.4712    0.0507 C.3       1 <0>         0.0378
     27 C21         5.7871    2.4249    0.0566 C.2       1 <0>         0.5177
     28 O4          5.5919    3.6219    0.0653 O.2       1 <0>        -0.5133
     29 N4          7.0475    1.9476    0.0523 N.am      1 <0>        -0.8489
     30 H1         -1.1021    1.9547    0.0630 H         1 <0>         0.1404
     31 H2          0.9918    3.2393    0.0657 H         1 <0>         0.1419
     32 H3          3.2419   -0.3991    0.0372 H         1 <0>         0.1332
     33 H4          1.1571   -1.6985    0.0295 H         1 <0>         0.1300
     34 H5         -2.3143   -0.2204    0.0447 H         1 <0>         0.1384
     35 H6         -0.3711   -2.5924    0.0255 H         1 <0>         0.1291
     36 H7         -1.6712   -4.6567    0.0123 H         1 <0>         0.4036
     37 H8         -4.3498   -4.7283    0.9048 H         1 <0>         0.0988
     38 H9         -4.3518   -4.7156   -0.8751 H         1 <0>         0.1026
     39 H10        -3.4045   -6.6066   -2.1386 H         1 <0>         0.1839
     40 H11        -2.8819   -9.0088   -2.1027 H         1 <0>         0.2108
     41 H12        -3.4098   -6.6382    2.1352 H         1 <0>         0.1810
     42 H13        -1.8938   -8.5653    4.0705 H         1 <0>         0.1069
     43 H14        -3.2029   -7.5028    3.4919 H         1 <0>         0.1110
     44 H15        -3.8167   -8.8721    5.5401 H         1 <0>         0.1272
     45 H16        -4.8938   -9.1316    4.1459 H         1 <0>         0.0675
     46 H17        -3.4644  -12.3684    3.3758 H         1 <0>         0.1261
     47 H18        -4.6882  -11.1724    2.8826 H         1 <0>         0.0658
     48 H19        -2.8543  -11.0564    1.2933 H         1 <0>         0.0891
     49 H20        -1.6625  -10.9225    2.6121 H         1 <0>         0.1100
     50 H21         4.6648    0.8371    0.9361 H         1 <0>         0.0974
     51 H22         4.6635    0.8498   -0.8438 H         1 <0>         0.0975
     52 H23         7.2036    0.9903    0.0453 H         1 <0>         0.4034
     53 H24         7.7986    2.5615    0.0561 H         1 <0>         0.4124
     54 H25        -2.6627  -10.0638   -0.0396 H         1 <0>         0.4396
@<TRIPOS>BOND
     1    1    6 ar
     2    1    2 ar
     3    1   30 1
     4    2    3 ar
     5    2   31 1
     6    3    4 ar
     7    3   25 1
     8    4    5 ar
     9    4   32 1
    10    5    6 ar
    11    5   33 1
    12    6    7 1
    13    7    8 2
    14    7   34 1
    15    8    9 1
    16    8   35 1
    17    9   10 2
    18    9   11 am
    19   11   12 1
    20   11   36 1
    21   12   13 1
    22   12   37 1
    23   12   38 1
    24   13   18 ar
    25   13   14 ar
    26   14   15 ar
    27   14   39 1
    28   15   16 ar
    29   15   40 1
    30   16   17 ar
    31   16   54 1
    32   17   18 ar
    33   17   19 1
    34   18   41 1
    35   19   24 1
    36   19   20 1
    37   20   21 1
    38   20   42 1
    39   20   43 1
    40   21   22 1
    41   21   44 1
    42   21   45 1
    43   22   23 1
    44   23   24 1
    45   23   46 1
    46   23   47 1
    47   24   48 1
    48   24   49 1
    49   25   26 1
    50   26   27 1
    51   26   50 1
    52   26   51 1
    53   27   28 2
    54   27   29 am
    55   29   52 1
    56   29   53 1
@<TRIPOS>MOLECULE
ZINC61401062
   39    39     0     0     0
SMALL
USER_CHARGES

@<TRIPOS>ATOM
      1 C1         -0.0254    1.3746   -0.0312 C.3       1 <0>        -0.0605
      2 N1          0.0225   -0.0936   -0.0440 N.4       1 <0>        -0.3812
      3 C2          0.7315   -0.5708    1.1508 C.3       1 <0>        -0.0233
      4 C3          2.1917   -0.1177    1.0924 C.3       1 <0>         0.0960
      5 N2          2.8987   -0.5936    2.2840 N.am      1 <0>        -0.7282
      6 C4          4.2062   -0.3118    2.4493 C.2       1 <0>         0.5930
      7 O1          4.7992    0.3375    1.6093 O.2       1 <0>        -0.5333
      8 C5          4.9177   -0.7908    3.6484 C.ar      1 <0>        -0.2806
      9 C6          4.2229   -1.4318    4.6807 C.ar      1 <0>         0.0378
     10 C7          4.9372   -1.8631    5.7850 C.ar      1 <0>        -0.2246
     11 C8          6.3043   -1.6510    5.8378 C.ar      1 <0>         0.2336
     12 N3          6.9400   -1.0446    4.8546 N.ar      1 <0>        -0.5360
     13 C9          6.3065   -0.6173    3.7732 C.ar      1 <0>         0.4759
     14 N4          7.0147    0.0085    2.7635 N.pl3     1 <0>        -0.8154
     15 Br1         4.0524   -2.7348    7.2110 Br        1 <0>        -0.0228
     16 C10        -1.3457   -0.6281   -0.0477 C.3       1 <0>        -0.0014
     17 C11        -2.0435   -0.2345   -1.3512 C.3       1 <0>         0.0251
     18 O2         -1.3877   -0.8667   -2.4523 O.3       1 <0>        -0.4030
     19 C12        -1.9643   -0.5634   -3.7241 C.3       1 <0>         0.0300
     20 H1          0.9899    1.7712   -0.0285 H         1 <0>         0.1285
     21 H2         -0.5514    1.7287   -0.9178 H         1 <0>         0.1270
     22 H3         -0.5501    1.7132    0.8621 H         1 <0>         0.1268
     23 H4          0.2587   -0.1591    2.0425 H         1 <0>         0.1393
     24 H5          0.6900   -1.6594    1.1873 H         1 <0>         0.1403
     25 H6          2.6645   -0.5293    0.2008 H         1 <0>         0.0934
     26 H7          2.2331    0.9709    1.0560 H         1 <0>         0.0935
     27 H8          2.4257   -1.1115    2.9541 H         1 <0>         0.4087
     28 H9          3.1559   -1.5857    4.6173 H         1 <0>         0.1422
     29 H10         6.8602   -1.9882    6.7002 H         1 <0>         0.1764
     30 H11         6.5439    0.3968    2.0095 H         1 <0>         0.4259
     31 H12         7.9823    0.0593    2.8094 H         1 <0>         0.4088
     32 H13        -1.3116   -1.7146    0.0324 H         1 <0>         0.1411
     33 H14        -1.8981   -0.2186    0.7981 H         1 <0>         0.1456
     34 H15        -3.0851   -0.5540   -1.3166 H         1 <0>         0.0996
     35 H16        -1.9993    0.8476   -1.4746 H         1 <0>         0.0767
     36 H17        -1.4100   -1.0811   -4.5070 H         1 <0>         0.1014
     37 H18        -3.0042   -0.8897   -3.7387 H         1 <0>         0.0563
     38 H19        -1.9185    0.5118   -3.8967 H         1 <0>         0.0524
     39 H20         0.5083   -0.4070   -0.8710 H         1 <0>         0.4352
@<TRIPOS>BOND
     1    1    2 1
     2    1   20 1
     3    1   21 1
     4    1   22 1
     5    2    3 1
     6    2   16 1
     7    2   39 1
     8    3    4 1
     9    3   23 1
    10    3   24 1
    11    4    5 1
    12    4   25 1
    13    4   26 1
    14    5    6 am
    15    5   27 1
    16    6    7 2
    17    6    8 1
    18    8   13 ar
    19    8    9 ar
    20    9   10 ar
    21    9   28 1
    22   10   11 ar
    23   10   15 1
    24   11   12 ar
    25   11   29 1
    26   12   13 ar
    27   13   14 1
    28   14   30 1
    29   14   31 1
    30   16   17 1
    31   16   32 1
    32   16   33 1
    33   17   18 1
    34   17   34 1
    35   17   35 1
    36   18   19 1
    37   19   36 1
    38   19   37 1
    39   19   38 1
@<TRIPOS>MOLECULE
ZINC64886565
   47    49     0     0     0
SMALL
USER_CHARGES

@<TRIPOS>ATOM
      1 C1         -0.0162    1.3439    0.0094 C.2       1 <0>        -0.1787
      2 C2          1.3226    1.7857   -0.0010 C.2       1 <0>        -0.1803
      3 C3          2.1101    0.6916   -0.0144 C.2       1 <0>        -0.0140
      4 N1          1.3057   -0.4130   -0.0126 N.pl3     1 <0>        -0.4059
      5 C4          0.0021   -0.0041    0.0020 C.2       1 <0>        -0.0208
      6 C5          1.7438   -1.7406   -0.0244 C.ar      1 <0>         0.1856
      7 C6          3.1056   -2.0216   -0.0336 C.ar      1 <0>        -0.1476
      8 C7          3.5407   -3.3281   -0.0456 C.ar      1 <0>        -0.0160
      9 C8          2.6119   -4.3719   -0.0481 C.ar      1 <0>        -0.1523
     10 C9          1.2444   -4.0858   -0.0383 C.ar      1 <0>        -0.0557
     11 C10         0.8166   -2.7770   -0.0210 C.ar      1 <0>        -0.1520
     12 C11         3.0745   -5.7740   -0.0614 C.2       1 <0>         0.5675
     13 O1          4.2649   -6.0213   -0.0703 O.2       1 <0>        -0.5152
     14 N2          2.1772   -6.7796   -0.0638 N.am      1 <0>        -0.5316
     15 N3          2.6162   -8.1100   -0.0764 N.am      1 <0>        -0.5248
     16 C12         1.7189   -9.1157   -0.0788 C.2       1 <0>         0.7160
     17 O2          2.0999  -10.2703   -0.0898 O.2       1 <0>        -0.5592
     18 N4          0.3994   -8.8415   -0.0689 N.am      1 <0>        -0.7488
     19 C13        -0.5759   -9.9347   -0.0715 C.3       1 <0>         0.1386
     20 C14        -1.9918   -9.3549   -0.0587 C.3       1 <0>        -0.1559
     21 C15        -3.0104  -10.4966   -0.0614 C.3       1 <0>         0.0954
     22 N5         -4.3661   -9.9415   -0.0492 N.pl3     1 <0>        -0.4089
     23 C16        -5.1090   -9.6365    1.0594 C.2       1 <0>         0.0256
     24 C17        -6.2864   -9.1538    0.6187 C.2       1 <0>         0.0047
     25 N6         -6.2631   -9.1638   -0.7224 N.pl3     1 <0>        -0.4759
     26 C18        -5.1141   -9.6296   -1.1294 C.cat     1 <0>         0.2890
     27 H1         -0.8956    1.9707    0.0252 H         1 <0>         0.1454
     28 H2          1.6563    2.8129    0.0008 H         1 <0>         0.1467
     29 H3          3.1900    0.6886   -0.0250 H         1 <0>         0.1699
     30 H4         -0.8640   -0.6492    0.0071 H         1 <0>         0.1662
     31 H5          3.8230   -1.2143   -0.0317 H         1 <0>         0.1442
     32 H6          4.5985   -3.5457   -0.0535 H         1 <0>         0.1513
     33 H7          0.5237   -4.8902   -0.0405 H         1 <0>         0.1277
     34 H8         -0.2403   -2.5551   -0.0094 H         1 <0>         0.1390
     35 H9          1.2276   -6.5823   -0.0567 H         1 <0>         0.4151
     36 H10         3.5659   -8.3074   -0.0835 H         1 <0>         0.4495
     37 H11         0.0955   -7.9204   -0.0601 H         1 <0>         0.3915
     38 H12        -0.4397  -10.5411   -0.9669 H         1 <0>         0.0819
     39 H13        -0.4292  -10.5546    0.8130 H         1 <0>         0.0821
     40 H14        -2.1281   -8.7485    0.8367 H         1 <0>         0.0896
     41 H15        -2.1386   -8.7350   -0.9432 H         1 <0>         0.0875
     42 H16        -2.8741  -11.1030   -0.9568 H         1 <0>         0.1284
     43 H17        -2.8636  -11.1165    0.8231 H         1 <0>         0.1311
     44 H18        -4.8087   -9.7597    2.0894 H         1 <0>         0.2236
     45 H19        -7.1058   -8.8176    1.2367 H         1 <0>         0.2243
     46 H20        -4.8123   -9.7485   -2.1596 H         1 <0>         0.2604
     47 H21        -6.9851   -8.8679   -1.2987 H         1 <0>         0.4661
@<TRIPOS>BOND
     1    1    5 2
     2    1    2 1
     3    1   27 1
     4    2    3 2
     5    2   28 1
     6    3    4 1
     7    3   29 1
     8    4    5 1
     9    4    6 1
    10    5   30 1
    11    6   11 ar
    12    6    7 ar
    13    7    8 ar
    14    7   31 1
    15    8    9 ar
    16    8   32 1
    17    9   10 ar
    18    9   12 1
    19   10   11 ar
    20   10   33 1
    21   11   34 1
    22   12   13 2
    23   12   14 am
    24   14   15 1
    25   14   35 1
    26   15   16 am
    27   15   36 1
    28   16   17 2
    29   16   18 am
    30   18   19 1
    31   18   37 1
    32   19   20 1
    33   19   38 1
    34   19   39 1
    35   20   21 1
    36   20   40 1
    37   20   41 1
    38   21   22 1
    39   21   42 1
    40   21   43 1
    41   22   26 1
    42   22   23 1
    43   23   24 2
    44   23   44 1
    45   24   25 1
    46   24   45 1
    47   25   26 2
    48   25   47 1
    49   26   46 1
@<TRIPOS>MOLECULE
ZINC67268900
   49    50     0     0     0
SMALL
USER_CHARGES

@<TRIPOS>ATOM
      1 C1         -0.2180    1.4371    0.8399 C.3       1 <0>        -0.1318
      2 C2         -0.1381   -0.0505    0.6125 C.ar      1 <0>        -0.0480
      3 C3         -0.0275   -0.5483   -0.6723 C.ar      1 <0>        -0.1066
      4 C4          0.0458   -1.9129   -0.8810 C.ar      1 <0>        -0.0862
      5 C5          0.0090   -2.7796    0.1953 C.ar      1 <0>        -0.1520
      6 C6         -0.1007   -2.2817    1.4802 C.ar      1 <0>        -0.1140
      7 C7         -0.1696   -0.9170    1.6891 C.ar      1 <0>        -0.1047
      8 C8          0.0879   -4.2672   -0.0322 C.3       1 <0>         0.0682
      9 H1          0.5162   -4.4622   -1.0154 H         1 <0>         0.1487
     10 C9         -1.3166   -4.8696    0.0409 C.3       1 <0>         0.1039
     11 N1         -2.1279   -4.3522   -1.0638 N.am      1 <0>        -0.7294
     12 C10        -3.4372   -4.6625   -1.1413 C.2       1 <0>         0.5222
     13 O1         -3.9437   -5.3701   -0.2965 O.2       1 <0>        -0.5192
     14 C11        -4.2717   -4.1303   -2.2777 C.3       1 <0>        -0.1389
     15 C12        -5.7110   -4.6278   -2.1300 C.3       1 <0>        -0.1072
     16 C13        -6.5583   -4.0875   -3.2837 C.3       1 <0>         0.0922
     17 H2         -6.1199   -4.3645   -4.2425 H         1 <0>         0.1336
     18 C14        -7.9830   -4.5950   -3.1823 C.2       1 <0>         0.5284
     19 O2         -8.3538   -5.7487   -3.2186 O.2       1 <0>        -0.4558
     20 N2         -8.7518   -3.4969   -3.0427 N.am      1 <0>        -0.6786
     21 C15        -8.0184   -2.3779   -3.0418 C.2       1 <0>         0.7040
     22 O3         -8.4879   -1.2625   -2.9290 O.2       1 <0>        -0.5340
     23 N3         -6.7000   -2.6248   -3.1819 N.am      1 <0>        -0.7267
     24 N4          0.9363   -4.8763    1.0010 N.4       1 <0>        -0.3816
     25 C16         1.0275   -6.3239    0.7689 C.3       1 <0>        -0.0552
     26 C17         2.2799   -4.2853    0.9424 C.3       1 <0>        -0.0486
     27 H3          0.7873    1.8407    0.9610 H         1 <0>         0.0832
     28 H4         -0.6988    1.9102   -0.0163 H         1 <0>         0.0772
     29 H5         -0.8003    1.6363    1.7396 H         1 <0>         0.0762
     30 H6          0.0012    0.1288   -1.5132 H         1 <0>         0.1379
     31 H7          0.1315   -2.3018   -1.8848 H         1 <0>         0.1325
     32 H8         -0.1297   -2.9589    2.3211 H         1 <0>         0.1192
     33 H9         -0.2516   -0.5279    2.6933 H         1 <0>         0.1362
     34 H10        -1.2508   -5.9550   -0.0340 H         1 <0>         0.0920
     35 H11        -1.7794   -4.5982    0.9897 H         1 <0>         0.0926
     36 H12        -1.7228   -3.7863   -1.7395 H         1 <0>         0.4065
     37 H13        -4.2601   -3.0405   -2.2576 H         1 <0>         0.1006
     38 H14        -3.8615   -4.4806   -3.2248 H         1 <0>         0.1079
     39 H15        -5.7226   -5.7176   -2.1501 H         1 <0>         0.1027
     40 H16        -6.1212   -4.2775   -1.1829 H         1 <0>         0.0869
     41 H17        -9.7176   -3.5155   -2.9543 H         1 <0>         0.4376
     42 H18        -5.9849   -1.9699   -3.2092 H         1 <0>         0.4398
     43 H19         1.3462   -6.5080   -0.2571 H         1 <0>         0.1261
     44 H20         1.7525   -6.7573    1.4578 H         1 <0>         0.1313
     45 H21         0.0516   -6.7806    0.9337 H         1 <0>         0.1272
     46 H22         2.2121   -3.2111    1.1146 H         1 <0>         0.1254
     47 H23         2.9093   -4.7371    1.7090 H         1 <0>         0.1287
     48 H24         2.7151   -4.4690   -0.0399 H         1 <0>         0.1244
     49 H25         0.5334   -4.7062    1.9103 H         1 <0>         0.4252
@<TRIPOS>BOND
     1    1    2 1
     2    1   27 1
     3    1   28 1
     4    1   29 1
     5    2    7 ar
     6    2    3 ar
     7    3    4 ar
     8    3   30 1
     9    4    5 ar
    10    4   31 1
    11    5    6 ar
    12    5    8 1
    13    6    7 ar
    14    6   32 1
    15    7   33 1
    16    8    9 1
    17    8   10 1
    18    8   24 1
    19   10   11 1
    20   10   34 1
    21   10   35 1
    22   11   12 am
    23   11   36 1
    24   12   13 2
    25   12   14 1
    26   14   15 1
    27   14   37 1
    28   14   38 1
    29   15   16 1
    30   15   39 1
    31   15   40 1
    32   16   17 1
    33   16   23 1
    34   16   18 1
    35   18   19 2
    36   18   20 am
    37   20   21 am
    38   20   41 1
    39   21   22 2
    40   21   23 am
    41   23   42 1
    42   24   25 1
    43   24   26 1
    44   24   49 1
    45   25   43 1
    46   25   44 1
    47   25   45 1
    48   26   46 1
    49   26   47 1
    50   26   48 1
@<TRIPOS>MOLECULE
ZINC39601765
   57    59     0     0     0
SMALL
USER_CHARGES

@<TRIPOS>ATOM
      1 C1         -0.1671    1.2192   -0.3268 C.ar      1 <0>        -0.1201
      2 C2          1.0354    1.8795   -0.4667 C.ar      1 <0>        -0.0594
      3 C3          2.1684    1.4116    0.2018 C.ar      1 <0>        -0.1667
      4 C4          2.0751    0.2744    1.0101 C.ar      1 <0>         0.1661
      5 C5          0.8615   -0.3779    1.1410 C.ar      1 <0>        -0.0836
      6 C6         -0.2550    0.0939    0.4742 C.ar      1 <0>        -0.0504
      7 Cl1         0.7402   -1.7902    2.1433 Cl        1 <0>        -0.0288
      8 F1          3.1658   -0.1863    1.6607 F         1 <0>        -0.1061
      9 C7          3.4593    2.1141    0.0556 C.2       1 <0>         0.5922
     10 O1          4.4990    1.4841    0.0673 O.2       1 <0>        -0.5092
     11 N1          3.4847    3.4537   -0.0908 N.am      1 <0>        -0.6183
     12 C8          2.3435    4.3966   -0.0228 C.3       1 <0>         0.1042
     13 C9          2.8990    5.6283    0.7267 C.3       1 <0>        -0.1138
     14 H1          2.6693    5.5610    1.7901 H         1 <0>         0.1119
     15 C10         4.4194    5.5712    0.5027 C.3       1 <0>        -0.0711
     16 C11         4.6616    4.3173   -0.3498 C.3       1 <0>         0.1092
     17 C12         5.1459    5.4422    1.8381 C.3       1 <0>        -0.1347
     18 C13         6.6576    5.4448    1.5938 C.3       1 <0>        -0.0111
     19 N2          7.0442    6.6914    0.9220 N.4       1 <0>        -0.5044
     20 C14         6.4135    6.7637   -0.4015 C.3       1 <0>        -0.0073
     21 C15         4.8914    6.8165   -0.2416 C.3       1 <0>        -0.1471
     22 C16         2.3282    6.8968    0.1470 C.2       1 <0>         0.5198
     23 O2          2.0351    6.9480   -1.0288 O.2       1 <0>        -0.5228
     24 N3          2.1433    7.9744    0.9351 N.am      1 <0>        -0.7203
     25 C17         1.5883    9.2075    0.3715 C.3       1 <0>         0.1213
     26 C18         1.4822   10.2676    1.4696 C.3       1 <0>         0.0449
     27 O3          2.7916   10.6154    1.9240 O.3       1 <0>        -0.3851
     28 C19         2.8052   11.6039    2.9559 C.3       1 <0>         0.0592
     29 C20         4.2508   11.8968    3.3626 C.3       1 <0>         0.0792
     30 O4          4.9443   12.4892    2.2625 O.3       1 <0>        -0.5674
     31 H2         -1.0443    1.5839   -0.8405 H         1 <0>         0.1515
     32 H3          1.1008    2.7570   -1.0928 H         1 <0>         0.1463
     33 H4         -1.2001   -0.4182    0.5796 H         1 <0>         0.1541
     34 H5          2.0209    4.6757   -1.0258 H         1 <0>         0.1041
     35 H6          1.5174    3.9539    0.5336 H         1 <0>         0.0975
     36 H7          5.5775    3.8163   -0.0364 H         1 <0>         0.0919
     37 H8          4.7141    4.5822   -1.4058 H         1 <0>         0.0883
     38 H9          4.8795    6.2820    2.4799 H         1 <0>         0.0969
     39 H10         4.8569    4.5086    2.3208 H         1 <0>         0.1177
     40 H11         7.1797    5.3693    2.5476 H         1 <0>         0.1398
     41 H12         6.9253    4.5955    0.9653 H         1 <0>         0.1344
     42 H13         6.7459    7.4784    1.4786 H         1 <0>         0.4281
     43 H14         6.7556    7.6603   -0.9183 H         1 <0>         0.1398
     44 H15         6.6872    5.8831   -0.9827 H         1 <0>         0.1329
     45 H16         4.4232    6.8518   -1.2253 H         1 <0>         0.1269
     46 H17         4.6157    7.7057    0.3253 H         1 <0>         0.1004
     47 H18         2.3777    7.9335    1.8754 H         1 <0>         0.4035
     48 H19         2.2416    9.5705   -0.4220 H         1 <0>         0.0818
     49 H20         0.5978    9.0068   -0.0368 H         1 <0>         0.0902
     50 H21         0.9880   11.1541    1.0722 H         1 <0>         0.0736
     51 H22         0.9019    9.8708    2.3027 H         1 <0>         0.0598
     52 H23         2.3385   12.5182    2.5894 H         1 <0>         0.0629
     53 H24         2.2524   11.2349    3.8198 H         1 <0>         0.0674
     54 H25         4.2581   12.5836    4.2089 H         1 <0>         0.0657
     55 H26         4.7443   10.9669    3.6450 H         1 <0>         0.0491
     56 H27         5.8689   12.7021    2.4492 H         1 <0>         0.3814
     57 H28         8.0473    6.7182    0.8169 H         1 <0>         0.4339
@<TRIPOS>BOND
     1    1    6 ar
     2    1    2 ar
     3    1   31 1
     4    2    3 ar
     5    2   32 1
     6    3    4 ar
     7    3    9 1
     8    4    5 ar
     9    4    8 1
    10    5    6 ar
    11    5    7 1
    12    6   33 1
    13    9   10 2
    14    9   11 am
    15   11   16 1
    16   11   12 1
    17   12   13 1
    18   12   34 1
    19   12   35 1
    20   13   14 1
    21   13   15 1
    22   13   22 1
    23   15   21 1
    24   15   16 1
    25   15   17 1
    26   16   36 1
    27   16   37 1
    28   17   18 1
    29   17   38 1
    30   17   39 1
    31   18   19 1
    32   18   40 1
    33   18   41 1
    34   19   20 1
    35   19   42 1
    36   19   57 1
    37   20   21 1
    38   20   43 1
    39   20   44 1
    40   21   45 1
    41   21   46 1
    42   22   23 2
    43   22   24 am
    44   24   25 1
    45   24   47 1
    46   25   26 1
    47   25   48 1
    48   25   49 1
    49   26   27 1
    50   26   50 1
    51   26   51 1
    52   27   28 1
    53   28   29 1
    54   28   52 1
    55   28   53 1
    56   29   30 1
    57   29   54 1
    58   29   55 1
    59   30   56 1
@<TRIPOS>MOLECULE
ZINC46393244
   54    55     0     0     0
SMALL
USER_CHARGES

@<TRIPOS>ATOM
      1 C1         -0.0187    1.5258    0.0104 C.3       1 <0>        -0.1526
      2 C2          0.0021   -0.0041    0.0020 C.3       1 <0>        -0.1105
      3 H1         -1.0203   -0.3820    0.0097 H         1 <0>         0.0933
      4 C3          0.7207   -0.4988   -1.2566 C.3       1 <0>        -0.1358
      5 C4          0.8050   -2.0274   -1.2167 C.3       1 <0>        -0.1454
      6 C5          1.5180   -2.4602    0.0661 C.3       1 <0>        -0.0130
      7 N1          0.7684   -1.9794    1.2329 N.4       1 <0>        -0.3818
      8 C6          0.7439   -0.5118    1.2403 C.3       1 <0>        -0.0054
      9 C7          1.4135   -2.4631    2.4608 C.3       1 <0>        -0.0059
     10 C8          1.3197   -3.9891    2.5192 C.3       1 <0>        -0.1630
     11 C9          1.9917   -4.4928    3.7981 C.3       1 <0>         0.1413
     12 N2          1.9019   -5.9540    3.8540 N.am      1 <0>        -0.7420
     13 C10         2.4296   -6.6221    4.8989 C.2       1 <0>         0.7203
     14 O1          2.9802   -6.0121    5.7950 O.2       1 <0>        -0.5788
     15 N3          2.3470   -7.9663    4.9503 N.am      1 <0>        -0.5883
     16 N4          1.7284   -8.6516    3.9434 N.3       1 <0>        -0.4382
     17 C11         1.7515  -10.0979    4.1995 C.3       1 <0>         0.1050
     18 C12         3.2019  -10.5377    4.3938 C.3       1 <0>        -0.1316
     19 C13         3.3764  -12.0224    3.9685 C.3       1 <0>        -0.5645
     20 S1          2.2950  -12.0429    2.4716 S.o2      1 <0>         2.3750
     21 O2          3.0124  -11.5048    1.3693 O.2       1 <0>        -0.9217
     22 O3          1.6818  -13.3195    2.3555 O.2       1 <0>        -0.9281
     23 C14         1.0423  -10.8169    3.0353 C.3       1 <0>        -0.5756
     24 C15         0.9806  -10.3780    5.4910 C.3       1 <0>        -0.1912
     25 H2          1.0039    1.9031    0.0027 H         1 <0>         0.0676
     26 H3         -0.5459    1.8868   -0.8726 H         1 <0>         0.0778
     27 H4         -0.5289    1.8773    0.9072 H         1 <0>         0.0686
     28 H5          0.1639   -0.1874   -2.1404 H         1 <0>         0.0945
     29 H6          1.7260   -0.0791   -1.2911 H         1 <0>         0.0827
     30 H7         -0.2005   -2.4480   -1.2339 H         1 <0>         0.0873
     31 H8          1.3641   -2.3838   -2.0819 H         1 <0>         0.1131
     32 H9          1.5800   -3.5480    0.0976 H         1 <0>         0.1315
     33 H10         2.5234   -2.0393    0.0822 H         1 <0>         0.1297
     34 H11         1.7658   -0.1325    1.2321 H         1 <0>         0.1296
     35 H12         0.2343   -0.1612    2.1378 H         1 <0>         0.1310
     36 H13         2.4615   -2.1631    2.4631 H         1 <0>         0.1348
     37 H14         0.9112   -2.0347    3.3282 H         1 <0>         0.1358
     38 H15         0.2718   -4.2890    2.5170 H         1 <0>         0.0941
     39 H16         1.8221   -4.4174    1.6519 H         1 <0>         0.0963
     40 H17         3.0396   -4.1928    3.8004 H         1 <0>         0.0789
     41 H18         1.4893   -4.0645    4.6655 H         1 <0>         0.0776
     42 H19         1.4626   -6.4406    3.1391 H         1 <0>         0.4039
     43 H20         2.7268   -8.4472    5.7022 H         1 <0>         0.4198
     44 H21         0.7838   -8.3231    3.8096 H         1 <0>         0.3382
     45 H22         3.8536   -9.9096    3.7864 H         1 <0>         0.1067
     46 H23         3.4742  -10.4289    5.4436 H         1 <0>         0.1022
     47 H24         4.4128  -12.2433    3.7129 H         1 <0>         0.1485
     48 H25         3.0056  -12.7018    4.7359 H         1 <0>         0.1425
     49 H26         0.1415  -11.3207    3.3858 H         1 <0>         0.1495
     50 H27         0.8051  -10.1142    2.2365 H         1 <0>         0.1514
     51 H28        -0.0521  -10.0487    5.3765 H         1 <0>         0.0716
     52 H29         0.9997  -11.4475    5.7009 H         1 <0>         0.0822
     53 H30         1.4450   -9.8375    6.3158 H         1 <0>         0.0689
     54 H31        -0.1770   -2.3297    1.1917 H         1 <0>         0.4221
@<TRIPOS>BOND
     1    1    2 1
     2    1   25 1
     3    1   26 1
     4    1   27 1
     5    2    3 1
     6    2    8 1
     7    2    4 1
     8    4    5 1
     9    4   28 1
    10    4   29 1
    11    5    6 1
    12    5   30 1
    13    5   31 1
    14    6    7 1
    15    6   32 1
    16    6   33 1
    17    7    8 1
    18    7    9 1
    19    7   54 1
    20    8   34 1
    21    8   35 1
    22    9   10 1
    23    9   36 1
    24    9   37 1
    25   10   11 1
    26   10   38 1
    27   10   39 1
    28   11   12 1
    29   11   40 1
    30   11   41 1
    31   12   13 am
    32   12   42 1
    33   13   14 2
    34   13   15 am
    35   15   16 1
    36   15   43 1
    37   16   17 1
    38   16   44 1
    39   17   23 1
    40   17   18 1
    41   17   24 1
    42   18   19 1
    43   18   45 1
    44   18   46 1
    45   19   20 1
    46   19   47 1
    47   19   48 1
    48   20   21 2
    49   20   22 2
    50   20   23 1
    51   23   49 1
    52   23   50 1
    53   24   51 1
    54   24   52 1
    55   24   53 1
@<TRIPOS>MOLECULE
ZINC53682412
   47    48     0     0     0
SMALL
USER_CHARGES

@<TRIPOS>ATOM
      1 C1         -0.0178    1.4648    0.0101 C.3       1 <0>        -0.0670
      2 N1          0.0021   -0.0041    0.0020 N.4       1 <0>        -0.3743
      3 C2         -1.3761   -0.5125    0.0124 C.3       1 <0>        -0.0001
      4 C3         -2.0780   -0.1101   -1.2861 C.3       1 <0>         0.0247
      5 O1         -1.4442   -0.7583   -2.3908 O.3       1 <0>        -0.3178
      6 C4         -1.9500   -0.5060   -3.6277 C.ar      1 <0>         0.0812
      7 C5         -3.0288    0.3511   -3.7752 C.ar      1 <0>        -0.1654
      8 C6         -3.5414    0.6069   -5.0333 C.ar      1 <0>        -0.1161
      9 C7         -2.9804    0.0088   -6.1464 C.ar      1 <0>        -0.0983
     10 C8         -1.9044   -0.8476   -6.0062 C.ar      1 <0>        -0.1705
     11 C9         -1.3818   -1.1035   -4.7486 C.ar      1 <0>         0.1100
     12 O2         -0.3195   -1.9411   -4.6096 O.3       1 <0>        -0.3123
     13 C10         0.2122   -2.5183   -5.8038 C.3       1 <0>         0.0236
     14 C11         0.7126   -0.4907    1.1921 C.3       1 <0>        -0.0223
     15 C12         2.1584   -0.0720    1.1202 C.2       1 <0>         0.4931
     16 O3          2.5577    0.5687    0.1710 O.2       1 <0>        -0.4963
     17 N2          3.0078   -0.4095    2.1107 N.am      1 <0>        -0.5856
     18 C13         4.3382   -0.0242    2.0445 C.2       1 <0>         0.0454
     19 C14         5.3478   -0.2840    2.9598 C.2       1 <0>        -0.2373
     20 C15         6.6571    0.2390    2.6432 C.2       1 <0>        -0.1085
     21 C16         6.7518    0.9240    1.4886 C.2       1 <0>        -0.2278
     22 S1          5.0980    0.8568    0.8356 S.3       1 <0>         0.2942
     23 C17         5.0990   -1.0493    4.1854 C.2       1 <0>         0.5903
     24 O4          3.9834   -1.4750    4.4212 O.2       1 <0>        -0.5685
     25 N3          6.1057   -1.2814    5.0510 N.am      1 <0>        -0.8413
     26 H1          1.0047    1.8421    0.0024 H         1 <0>         0.1423
     27 H2         -0.5450    1.8259   -0.8730 H         1 <0>         0.1276
     28 H3         -0.5280    1.8163    0.9069 H         1 <0>         0.1243
     29 H4         -1.3618   -1.5992    0.0960 H         1 <0>         0.1459
     30 H5         -1.9129   -0.0898    0.8617 H         1 <0>         0.1539
     31 H6         -3.1251   -0.4096   -1.2411 H         1 <0>         0.1115
     32 H7         -2.0144    0.9705   -1.4137 H         1 <0>         0.0881
     33 H8         -3.4693    0.8191   -2.9072 H         1 <0>         0.1347
     34 H9         -4.3822    1.2752   -5.1468 H         1 <0>         0.1339
     35 H10        -3.3840    0.2109   -7.1275 H         1 <0>         0.1348
     36 H11        -1.4683   -1.3139   -6.8773 H         1 <0>         0.1414
     37 H12        -0.5610   -3.1057   -6.2989 H         1 <0>         0.0599
     38 H13         0.5497   -1.7256   -6.4715 H         1 <0>         0.0595
     39 H14         1.0535   -3.1639   -5.5519 H         1 <0>         0.1050
     40 H15         0.2557   -0.0671    2.0865 H         1 <0>         0.1692
     41 H16         0.6508   -1.5782    1.2328 H         1 <0>         0.1696
     42 H17         2.6885   -0.9219    2.8699 H         1 <0>         0.4402
     43 H18         7.5068    0.0898    3.2929 H         1 <0>         0.1509
     44 H19         7.6229    1.3969    1.0596 H         1 <0>         0.1973
     45 H20         6.9948   -0.9421    4.8631 H         1 <0>         0.4053
     46 H21         5.9411   -1.7877    5.8618 H         1 <0>         0.4099
     47 H22         0.4744   -0.3295   -0.8281 H         1 <0>         0.4415
@<TRIPOS>BOND
     1    1    2 1
     2    1   26 1
     3    1   27 1
     4    1   28 1
     5    2    3 1
     6    2   14 1
     7    2   47 1
     8    3    4 1
     9    3   29 1
    10    3   30 1
    11    4    5 1
    12    4   31 1
    13    4   32 1
    14    5    6 1
    15    6   11 ar
    16    6    7 ar
    17    7    8 ar
    18    7   33 1
    19    8    9 ar
    20    8   34 1
    21    9   10 ar
    22    9   35 1
    23   10   11 ar
    24   10   36 1
    25   11   12 1
    26   12   13 1
    27   13   37 1
    28   13   38 1
    29   13   39 1
    30   14   15 1
    31   14   40 1
    32   14   41 1
    33   15   16 2
    34   15   17 am
    35   17   18 1
    36   17   42 1
    37   18   22 1
    38   18   19 2
    39   19   20 1
    40   19   23 1
    41   20   21 2
    42   20   43 1
    43   21   22 1
    44   21   44 1
    45   23   24 2
    46   23   25 am
    47   25   45 1
    48   25   46 1
@<TRIPOS>MOLECULE
ZINC63182457
   56    58     0     0     0
SMALL
USER_CHARGES

@<TRIPOS>ATOM
      1 C1         -0.0173    1.4248    0.0099 C.3       1 <0>         0.0198
      2 O1          0.0021   -0.0041    0.0020 O.3       1 <0>        -0.3009
      3 C2          0.6062   -0.6075   -1.0564 C.ar      1 <0>         0.1271
      4 C3          1.1729    0.1590   -2.0621 C.ar      1 <0>        -0.1775
      5 C4          1.7870   -0.4560   -3.1371 C.ar      1 <0>        -0.0659
      6 C5          1.8372   -1.8356   -3.2121 C.ar      1 <0>        -0.1487
      7 C6          1.2734   -2.6062   -2.2124 C.ar      1 <0>        -0.0890
      8 C7          0.6617   -1.9961   -1.1290 C.ar      1 <0>         0.0828
      9 O2          0.1119   -2.7526   -0.1417 O.3       1 <0>        -0.3210
     10 C8         -1.2589   -3.1251   -0.2969 C.3       1 <0>         0.0273
     11 C9          1.3295   -4.1097   -2.2977 C.3       1 <0>        -0.0158
     12 H1          0.8370   -4.5417   -1.4265 H         1 <0>         0.1349
     13 C10         2.7899   -4.5643   -2.3356 C.3       1 <0>        -0.0138
     14 N1          2.8472   -6.0317   -2.2980 N.4       1 <0>        -0.4891
     15 C11         4.2494   -6.4681   -2.3344 C.3       1 <0>        -0.0502
     16 H2          4.7996   -5.9908   -1.5235 H         1 <0>         0.1430
     17 C12         4.3149   -7.9878   -2.1698 C.3       1 <0>        -0.1307
     18 C13         3.8072   -8.3725   -0.7787 C.3       1 <0>         0.0680
     19 O3          3.8685   -9.7919   -0.6250 O.3       1 <0>        -0.5612
     20 C14         4.8625   -6.0789   -3.6548 C.2       1 <0>         0.5011
     21 O4          4.1934   -5.4924   -4.4883 O.co2     1 <0>        -0.6872
     22 O5          6.0277   -6.3506   -3.8896 O.co2     1 <0>        -0.6098
     23 C15         0.6280   -4.5683   -3.5502 C.2       1 <0>         0.0297
     24 C16        -0.4497   -5.3820   -3.6271 C.ar      1 <0>        -0.1534
     25 C17        -1.2595   -6.0586   -2.6069 C.ar      1 <0>        -0.0433
     26 C18        -2.3011   -6.8269   -2.9995 C.ar      1 <0>        -0.1283
     27 C19        -2.6254   -6.9931   -4.3530 C.ar      1 <0>         0.0456
     28 C20        -1.9284   -6.4038   -5.3475 C.ar      1 <0>        -0.1976
     29 C21        -0.8132   -5.5733   -5.0494 C.ar      1 <0>         0.3266
     30 N2          0.0079   -4.9038   -5.8217 N.pl3     1 <0>        -0.5604
     31 C22         0.9825   -4.2066   -4.9752 C.3       1 <0>         0.0449
     32 H3          1.0053    1.8021    0.0021 H         1 <0>         0.0639
     33 H4         -0.5445    1.7859   -0.8732 H         1 <0>         0.0611
     34 H5         -0.5275    1.7763    0.9067 H         1 <0>         0.1111
     35 H6          1.1344    1.2368   -2.0063 H         1 <0>         0.1451
     36 H7          2.2283    0.1425   -3.9203 H         1 <0>         0.1431
     37 H8          2.3175   -2.3124   -4.0537 H         1 <0>         0.1362
     38 H9         -1.8749   -2.2277   -0.3557 H         1 <0>         0.0569
     39 H10        -1.3761   -3.7067   -1.2113 H         1 <0>         0.0376
     40 H11        -1.5715   -3.7249    0.5578 H         1 <0>         0.1039
     41 H12         3.2584   -4.2058   -3.2522 H         1 <0>         0.1737
     42 H13         3.3194   -4.1578   -1.4739 H         1 <0>         0.1500
     43 H14         2.4135   -6.3636   -1.4495 H         1 <0>         0.4083
     44 H15         3.6922   -8.4626   -2.9280 H         1 <0>         0.0861
     45 H16         5.3461   -8.3216   -2.2854 H         1 <0>         0.1267
     46 H17         4.4300   -7.8978   -0.0205 H         1 <0>         0.0614
     47 H18         2.7761   -8.0387   -0.6631 H         1 <0>         0.0292
     48 H19         3.5610  -10.1080    0.2357 H         1 <0>         0.3908
     49 H20        -1.0270   -5.9450   -1.5584 H         1 <0>         0.1593
     50 H21        -2.8983   -7.3257   -2.2506 H         1 <0>         0.1609
     51 H22        -3.4673   -7.6186   -4.6107 H         1 <0>         0.1642
     52 H23        -2.2191   -6.5643   -6.3752 H         1 <0>         0.1649
     53 H24         0.9056   -3.1289   -5.1195 H         1 <0>         0.1823
     54 H25         1.9914   -4.5465   -5.2093 H         1 <0>         0.2004
     55 H26        -0.0258   -4.8717   -6.7905 H         1 <0>         0.4605
     56 H27         2.3570   -6.4079   -3.0956 H         1 <0>         0.4152
@<TRIPOS>BOND
     1    1    2 1
     2    1   32 1
     3    1   33 1
     4    1   34 1
     5    2    3 1
     6    3    8 ar
     7    3    4 ar
     8    4    5 ar
     9    4   35 1
    10    5    6 ar
    11    5   36 1
    12    6    7 ar
    13    6   37 1
    14    7    8 ar
    15    7   11 1
    16    8    9 1
    17    9   10 1
    18   10   38 1
    19   10   39 1
    20   10   40 1
    21   11   12 1
    22   11   13 1
    23   11   23 1
    24   13   14 1
    25   13   41 1
    26   13   42 1
    27   14   15 1
    28   14   43 1
    29   14   56 1
    30   15   16 1
    31   15   17 1
    32   15   20 1
    33   17   18 1
    34   17   44 1
    35   17   45 1
    36   18   19 1
    37   18   46 1
    38   18   47 1
    39   19   48 1
    40   20   21 2
    41   20   22 1
    42   23   31 1
    43   23   24 2
    44   24   29 ar
    45   24   25 ar
    46   25   26 ar
    47   25   49 1
    48   26   27 ar
    49   26   50 1
    50   27   28 ar
    51   27   51 1
    52   28   29 ar
    53   28   52 1
    54   29   30 2
    55   30   31 1
    56   30   55 1
    57   31   53 1
    58   31   54 1
@<TRIPOS>MOLECULE
ZINC67538092
   56    57     0     0     0
SMALL
USER_CHARGES

@<TRIPOS>ATOM
      1 C1         -1.2664    1.1823    0.1818 C.3       1 <0>        -0.1245
      2 C2         -0.5848   -0.1582    0.0846 C.ar      1 <0>        -0.0548
      3 C3         -0.5698   -0.8408   -1.1163 C.ar      1 <0>        -0.1204
      4 C4          0.0552   -2.0707   -1.2063 C.ar      1 <0>        -0.0299
      5 C5          0.6668   -2.6219   -0.0950 C.ar      1 <0>        -0.6482
      6 C6          0.6553   -1.9446    1.1083 C.ar      1 <0>        -0.0202
      7 C7          0.0336   -0.7060    1.2005 C.ar      1 <0>         0.1323
      8 N1          0.0251   -0.0145    2.4171 N.am      1 <0>        -0.6790
      9 C8         -0.0564   -0.6942    3.5781 C.2       1 <0>         0.7027
     10 O1         -0.0401   -1.9100    3.5732 O.2       1 <0>        -0.5578
     11 N2         -0.1560   -0.0263    4.7445 N.am      1 <0>        -0.7400
     12 C9         -0.2446   -0.7652    6.0064 C.3       1 <0>         0.1098
     13 C10        -0.3481    0.2231    7.1698 C.3       1 <0>         0.0712
     14 H1         -1.2393    0.8383    7.0457 H         1 <0>         0.1304
     15 C11        -0.4406   -0.5486    8.4877 C.3       1 <0>        -0.0430
     16 N3         -0.6601    0.3942    9.5928 N.4       1 <0>        -0.3780
     17 C12        -1.9630    1.0487    9.4240 C.3       1 <0>        -0.0128
     18 C13        -2.1616    2.0902   10.5273 C.3       1 <0>        -0.1421
     19 C14        -2.1098    1.3968   11.8917 C.3       1 <0>        -0.1046
     20 C15        -0.7765    0.6556   12.0264 C.3       1 <0>        -0.1435
     21 C16        -0.6293   -0.3328   10.8675 C.3       1 <0>        -0.0067
     22 C17        -2.2282    2.4427   13.0021 C.3       1 <0>        -0.1544
     23 O2          0.8099    1.0602    7.1882 O.3       1 <0>        -0.5507
     24 S1          1.4610   -4.1902   -0.2147 S.o2      1 <0>         2.4989
     25 O3          1.4173   -4.7202    1.1030 O.2       1 <0>        -0.9325
     26 O4          0.7986   -4.8514   -1.2838 O.2       1 <0>        -0.9334
     27 C18         3.1731   -3.8114   -0.6793 C.3       1 <0>        -0.6505
     28 H2         -0.5518    1.9711   -0.0532 H         1 <0>         0.0812
     29 H3         -2.0954    1.2206   -0.5249 H         1 <0>         0.0811
     30 H4         -1.6450    1.3248    1.1940 H         1 <0>         0.0661
     31 H5         -1.0472   -0.4133   -1.9857 H         1 <0>         0.1407
     32 H6          0.0656   -2.6024   -2.1463 H         1 <0>         0.1469
     33 H7          1.1327   -2.3757    1.9759 H         1 <0>         0.1589
     34 H8          0.0779    0.9540    2.4249 H         1 <0>         0.4099
     35 H9         -0.1690    0.9436    4.7484 H         1 <0>         0.4046
     36 H10        -1.1278   -1.4037    5.9923 H         1 <0>         0.0899
     37 H11         0.6466   -1.3804    6.1305 H         1 <0>         0.0852
     38 H12        -1.2721   -1.2517    8.4395 H         1 <0>         0.1451
     39 H13         0.4878   -1.0946    8.6550 H         1 <0>         0.1407
     40 H14        -1.9995    1.5391    8.4512 H         1 <0>         0.1295
     41 H15        -2.7547    0.3018    9.4833 H         1 <0>         0.1301
     42 H16        -1.3705    2.8378   10.4687 H         1 <0>         0.0892
     43 H17        -3.1303    2.5738   10.4013 H         1 <0>         0.1128
     44 H18        -2.9319    0.6853   11.9704 H         1 <0>         0.0889
     45 H19         0.0433    1.3734   11.9989 H         1 <0>         0.0888
     46 H20        -0.7552    0.1137   12.9719 H         1 <0>         0.1137
     47 H21        -1.4494   -1.0502   10.8961 H         1 <0>         0.1298
     48 H22         0.3189   -0.8623   10.9605 H         1 <0>         0.1312
     49 H23        -3.1743    2.9744   12.9010 H         1 <0>         0.0677
     50 H24        -2.1912    1.9480   13.9726 H         1 <0>         0.0679
     51 H25        -1.4033    3.1509   12.9236 H         1 <0>         0.0622
     52 H26         1.6416    0.5788    7.2960 H         1 <0>         0.3947
     53 H27         3.6284   -3.1865    0.0890 H         1 <0>         0.1298
     54 H28         3.7374   -4.7391   -0.7746 H         1 <0>         0.1352
     55 H29         3.1823   -3.2811   -1.6316 H         1 <0>         0.1330
     56 H30         0.0681    1.0926    9.5873 H         1 <0>         0.4269
@<TRIPOS>BOND
     1    1    2 1
     2    1   28 1
     3    1   29 1
     4    1   30 1
     5    2    7 ar
     6    2    3 ar
     7    3    4 ar
     8    3   31 1
     9    4    5 ar
    10    4   32 1
    11    5    6 ar
    12    5   24 1
    13    6    7 ar
    14    6   33 1
    15    7    8 1
    16    8    9 am
    17    8   34 1
    18    9   10 2
    19    9   11 am
    20   11   12 1
    21   11   35 1
    22   12   13 1
    23   12   36 1
    24   12   37 1
    25   13   14 1
    26   13   15 1
    27   13   23 1
    28   15   16 1
    29   15   38 1
    30   15   39 1
    31   16   21 1
    32   16   17 1
    33   16   56 1
    34   17   18 1
    35   17   40 1
    36   17   41 1
    37   18   19 1
    38   18   42 1
    39   18   43 1
    40   19   20 1
    41   19   22 1
    42   19   44 1
    43   20   21 1
    44   20   45 1
    45   20   46 1
    46   21   47 1
    47   21   48 1
    48   22   49 1
    49   22   50 1
    50   22   51 1
    51   23   52 1
    52   24   25 2
    53   24   26 2
    54   24   27 1
    55   27   53 1
    56   27   54 1
    57   27   55 1
@<TRIPOS>MOLECULE
ZINC13276144
   49    51     0     0     0
SMALL
USER_CHARGES
2-(2-carbamoyl-4-pyrrolidin-1-ylsulfonyl-phenoxy)-5-sulfamoyl-benzoic acid
@<TRIPOS>ATOM
      1 C1         -1.0319    1.4080    7.3289 C.ar      1 <0>         0.0150
      2 C2         -1.4584    1.8677    6.0985 C.ar      1 <0>        -0.2430
      3 C3         -2.6257    2.6099    6.0002 C.ar      1 <0>         0.2300
      4 C4         -3.3671    2.8950    7.1561 C.ar      1 <0>        -0.1466
      5 C5         -2.9267    2.4186    8.3935 C.ar      1 <0>         0.0566
      6 C6         -1.7638    1.6832    8.4723 C.ar      1 <0>        -0.7239
      7 S1         -1.2057    1.0899   10.0347 S.o2      1 <0>         2.7064
      8 O1         -2.3504    1.0155   10.8733 O.2       1 <0>        -0.9625
      9 O2         -0.3805   -0.0363    9.7702 O.2       1 <0>        -0.9748
     10 N1         -0.2223    2.2564   10.6785 N.pl3     1 <0>        -1.2515
     11 C7         -4.6063    3.6881    7.0653 C.2       1 <0>         0.4948
     12 O3         -4.9883    4.0971    5.9867 O.co2     1 <0>        -0.6047
     13 O4         -3.0455    3.0629    4.7925 O.3       1 <0>        -0.1976
     14 C8         -2.3578    2.6704    3.6911 C.ar      1 <0>         0.2020
     15 C9         -1.3241    3.4539    3.1991 C.ar      1 <0>        -0.1539
     16 C10        -0.6218    3.0505    2.0811 C.ar      1 <0>         0.0172
     17 C11        -0.9497    1.8690    1.4359 C.ar      1 <0>        -0.6968
     18 C12        -1.9736    1.0785    1.9108 C.ar      1 <0>         0.0247
     19 C13        -2.6888    1.4717    3.0446 C.ar      1 <0>        -0.1684
     20 C14        -3.7860    0.6298    3.5587 C.2       1 <0>         0.5485
     21 O5         -4.4062    0.9754    4.5457 O.2       1 <0>        -0.4840
     22 N2         -4.1007   -0.5223    2.9342 N.am      1 <0>        -0.8540
     23 S2         -0.0487    1.3715    0.0058 S.o2      1 <0>         2.7139
     24 O6         -0.1849   -0.0398   -0.0894 O.2       1 <0>        -0.9496
     25 O7          1.2179    2.0112    0.0809 O.2       1 <0>        -0.9481
     26 N3         -0.8251    2.0118   -1.3094 N.pl3     1 <0>        -1.0119
     27 C15        -1.8953    1.3566   -2.0754 C.3       1 <0>         0.1161
     28 C16        -2.2927    2.3140   -3.2186 C.3       1 <0>        -0.1296
     29 C17        -1.0319    3.2041   -3.3776 C.3       1 <0>        -0.1291
     30 C18        -0.5531    3.3304   -1.9098 C.3       1 <0>         0.1110
     31 H1         -0.1220    0.8306    7.4001 H         1 <0>         0.1409
     32 H2         -0.8820    1.6491    5.2117 H         1 <0>         0.1286
     33 H3         -3.4942    2.6304    9.2876 H         1 <0>         0.1599
     34 H4         -0.0584    3.0773   10.1884 H         1 <0>         0.4172
     35 H5          0.1899    2.1188   11.5457 H         1 <0>         0.4165
     36 H6         -1.0655    4.3783    3.6940 H         1 <0>         0.1536
     37 H7          0.1851    3.6617    1.7045 H         1 <0>         0.1531
     38 H8         -2.2226    0.1560    1.4074 H         1 <0>         0.1479
     39 H9         -3.6059   -0.7980    2.1468 H         1 <0>         0.3965
     40 H10        -4.8220   -1.0758    3.2722 H         1 <0>         0.4086
     41 H11        -1.5331    0.4147   -2.4873 H         1 <0>         0.0757
     42 H12        -2.7552    1.1753   -1.4305 H         1 <0>         0.0679
     43 H13        -3.1572    2.9162   -2.9391 H         1 <0>         0.0786
     44 H14        -2.4894    1.7567   -4.1344 H         1 <0>         0.0826
     45 H15        -1.2916    4.1795   -3.7892 H         1 <0>         0.0849
     46 H16        -0.2798    2.7100   -3.9927 H         1 <0>         0.0774
     47 H17        -1.1171    4.1065   -1.3923 H         1 <0>         0.0712
     48 H18         0.5141    3.5497   -1.8764 H         1 <0>         0.0861
     49 O8         -5.3156    3.9597    8.1784 O.co2     1 <0>        -0.7534
@<TRIPOS>BOND
     1    1    6 ar
     2    1    2 ar
     3    1   31 1
     4    2    3 ar
     5    2   32 1
     6    3    4 ar
     7    3   13 1
     8    4    5 ar
     9    4   11 1
    10    5    6 ar
    11    5   33 1
    12    6    7 1
    13    7    8 2
    14    7    9 2
    15    7   10 1
    16   10   34 1
    17   10   35 1
    18   11   12 2
    19   11   49 1
    20   13   14 1
    21   14   19 ar
    22   14   15 ar
    23   15   16 ar
    24   15   36 1
    25   16   17 ar
    26   16   37 1
    27   17   18 ar
    28   17   23 1
    29   18   19 ar
    30   18   38 1
    31   19   20 1
    32   20   21 2
    33   20   22 am
    34   22   39 1
    35   22   40 1
    36   23   24 2
    37   23   25 2
    38   23   26 1
    39   26   30 1
    40   26   27 1
    41   27   28 1
    42   27   41 1
    43   27   42 1
    44   28   29 1
    45   28   43 1
    46   28   44 1
    47   29   30 1
    48   29   45 1
    49   29   46 1
    50   30   47 1
    51   30   48 1
@<TRIPOS>MOLECULE
ZINC21736364
   55    58     0     0     0
SMALL
USER_CHARGES
2-[[2-(1-ethyl-5-sulfamoyl-benzimidazol-2-yl)sulfanylacetyl]amino]-4,5,6,7-tetrahydrobenzothiophene-3-carboxamide
@<TRIPOS>ATOM
      1 C1         -1.8255    7.3410   -1.3774 C.3       1 <0>        -0.1753
      2 C2         -2.1365    6.9260    0.0620 C.3       1 <0>         0.0977
      3 N1         -3.0443    5.7761    0.0533 N.pl3     1 <0>        -0.4698
      4 C3         -4.4289    5.8222    0.0544 C.ar      1 <0>         0.1044
      5 C4         -5.3563    6.8530    0.0641 C.ar      1 <0>        -0.1209
      6 C5         -6.7052    6.5633    0.0692 C.ar      1 <0>        -0.0114
      7 C6         -7.1409    5.2465    0.0648 C.ar      1 <0>        -0.6660
      8 C7         -6.2342    4.2104    0.0547 C.ar      1 <0>         0.0445
      9 C8         -4.8646    4.4869    0.0498 C.ar      1 <0>         0.0352
     10 N2         -3.7544    3.7036    0.0404 N.2       1 <0>        -0.4871
     11 C9         -2.6831    4.4585    0.0390 C.2       1 <0>         0.2480
     12 S1         -1.0248    3.8631    0.0279 S.3       1 <0>         0.0926
     13 C10        -1.3314    2.0792    0.0197 C.3       1 <0>        -0.1477
     14 C11        -0.0162    1.3436    0.0094 C.2       1 <0>         0.5315
     15 O1          1.0257    1.9642    0.0028 O.2       1 <0>        -0.4887
     16 N3          0.0021   -0.0041    0.0020 N.am      1 <0>        -0.6258
     17 C12         1.2122   -0.6810   -0.0132 C.2       1 <0>         0.0743
     18 C13         1.4339   -2.0508   -0.0170 C.2       1 <0>        -0.2215
     19 C14         2.8130   -2.5078   -0.0373 C.2       1 <0>        -0.0669
     20 C15         3.7434   -1.5287   -0.0405 C.2       1 <0>        -0.2064
     21 S2          2.8145   -0.0217   -0.0243 S.3       1 <0>         0.2220
     22 C16         5.2315   -1.6968   -0.0539 C.3       1 <0>        -0.0381
     23 C17         5.5572   -3.1517    0.3142 C.3       1 <0>        -0.1140
     24 C18         4.6710   -4.0817   -0.5194 C.3       1 <0>        -0.1199
     25 C19         3.2192   -3.9764   -0.0491 C.3       1 <0>        -0.0613
     26 C20         0.3179   -3.0017   -0.0050 C.2       1 <0>         0.5840
     27 O2         -0.1572   -3.3957   -1.0540 O.2       1 <0>        -0.5424
     28 N4         -0.1819   -3.4394    1.1677 N.am      1 <0>        -0.8703
     29 S3         -8.8679    4.8969    0.0715 S.o2      1 <0>         2.6409
     30 O3         -9.0163    3.5930    0.6165 O.2       1 <0>        -0.9848
     31 O4         -9.5103    6.0342    0.6312 O.2       1 <0>        -0.9494
     32 N5         -9.3556    4.8078   -1.5086 N.pl3     1 <0>        -1.1624
     33 H1         -1.1439    8.2044   -1.3709 H         1 <0>         0.0857
     34 H2         -2.7595    7.6150   -1.8899 H         1 <0>         0.0656
     35 H3         -1.3496    6.5020   -1.9062 H         1 <0>         0.0694
     36 H4         -1.2025    6.6520    0.5745 H         1 <0>         0.1020
     37 H5         -2.6124    7.7650    0.5908 H         1 <0>         0.1008
     38 H6         -5.0234    7.8804    0.0673 H         1 <0>         0.1351
     39 H7         -7.4265    7.3670    0.0772 H         1 <0>         0.1517
     40 H8         -6.5804    3.1874    0.0510 H         1 <0>         0.1500
     41 H9         -1.9002    1.8008    0.9191 H         1 <0>         0.1379
     42 H10        -1.9089    1.8105   -0.8771 H         1 <0>         0.1385
     43 H11        -0.9429   -0.5670    0.0080 H         1 <0>         0.4498
     44 H12         5.6174   -1.4668   -1.0580 H         1 <0>         0.0832
     45 H13         5.6844   -1.0125    0.6786 H         1 <0>         0.0817
     46 H14         6.6167   -3.3557    0.1002 H         1 <0>         0.0747
     47 H15         5.3620   -3.3116    1.3849 H         1 <0>         0.0685
     48 H16         4.7311   -3.7929   -1.5791 H         1 <0>         0.0679
     49 H17         5.0162   -5.1195   -0.4021 H         1 <0>         0.0710
     50 H18         3.1247   -4.3911    0.9653 H         1 <0>         0.0766
     51 H19         2.5636   -4.5327   -0.7352 H         1 <0>         0.0754
     52 H20        -1.0192   -4.1528    1.1767 H         1 <0>         0.4234
     53 H21         0.2474   -3.0832    2.1158 H         1 <0>         0.4222
     54 H22       -10.4331    4.5899   -1.5480 H         1 <0>         0.4144
     55 H23        -8.8006    4.0069   -2.0190 H         1 <0>         0.4096
@<TRIPOS>BOND
     1    1    2 1
     2    1   33 1
     3    1   34 1
     4    1   35 1
     5    2    3 1
     6    2   36 1
     7    2   37 1
     8    3   11 1
     9    3    4 1
    10    4    9 ar
    11    4    5 ar
    12    5    6 ar
    13    5   38 1
    14    6    7 ar
    15    6   39 1
    16    7    8 ar
    17    7   29 1
    18    8    9 ar
    19    8   40 1
    20    9   10 1
    21   10   11 2
    22   11   12 1
    23   12   13 1
    24   13   14 1
    25   13   41 1
    26   13   42 1
    27   14   15 2
    28   14   16 am
    29   16   17 1
    30   16   43 1
    31   17   21 1
    32   17   18 2
    33   18   19 1
    34   18   26 1
    35   19   25 1
    36   19   20 2
    37   20   21 1
    38   20   22 1
    39   22   23 1
    40   22   44 1
    41   22   45 1
    42   23   24 1
    43   23   46 1
    44   23   47 1
    45   24   25 1
    46   24   48 1
    47   24   49 1
    48   25   50 1
    49   25   51 1
    50   26   27 2
    51   26   28 am
    52   28   52 1
    53   28   53 1
    54   29   30 2
    55   29   31 2
    56   29   32 1
    57   32   54 1
    58   32   55 1
@<TRIPOS>MOLECULE
ZINC39482566
   57    60     0     0     0
SMALL
USER_CHARGES

@<TRIPOS>ATOM
      1 C1         -0.0167    1.3784    0.0096 C.ar      1 <0>        -0.0832
      2 C2          1.1698    2.0883    0.0021 C.ar      1 <0>        -0.0916
      3 C3          2.3773    1.4175   -0.0134 C.ar      1 <0>        -0.0759
      4 C4          2.3989    0.0304   -0.0210 C.ar      1 <0>         0.0350
      5 C5          1.2070   -0.6796   -0.0130 C.ar      1 <0>        -0.1369
      6 C6          0.0021   -0.0041    0.0020 C.ar      1 <0>        -0.0938
      7 O1          3.5855   -0.6319   -0.0368 O.3       1 <0>        -0.6498
      8 S1          4.1403   -0.9410    1.3464 S.o2      1 <0>         2.5871
      9 O2          5.4707   -1.3826    1.1130 O.2       1 <0>        -0.8781
     10 O3          3.8895    0.2321    2.1081 O.2       1 <0>        -0.8842
     11 C7          3.1250   -2.3133    1.9600 C.3       1 <0>        -0.5516
     12 H1          2.0815   -2.0017    2.0046 H         1 <0>         0.1971
     13 C8          3.5992   -2.7130    3.3611 C.3       1 <0>         0.1320
     14 N1          2.8513   -3.9072    3.7835 N.pl3     1 <0>        -0.6483
     15 C9          2.7922   -5.0508    2.8600 C.3       1 <0>         0.1123
     16 C10         2.3561   -4.5407    1.4826 C.3       1 <0>        -0.0225
     17 N2          3.2548   -3.4616    1.0541 N.4       1 <0>        -0.4773
     18 C11         2.2140   -3.9543    5.0295 C.ar      1 <0>         0.0864
     19 C12         0.9011   -3.5333    5.1525 C.ar      1 <0>        -0.0794
     20 C13         0.2699   -3.5815    6.3946 C.ar      1 <0>        -0.0758
     21 C14         0.9618   -4.0532    7.5088 C.ar      1 <0>        -0.0531
     22 C15         2.2709   -4.4724    7.3835 C.ar      1 <0>        -0.1662
     23 C16         2.9001   -4.4310    6.1474 C.ar      1 <0>         0.2170
     24 N3          4.2255   -4.8626    6.0228 N.pl3     1 <0>        -1.0743
     25 S2          4.7712   -6.1342    6.9325 S.o2      1 <0>         2.7629
     26 O4          6.1963   -6.2607    6.6698 O.2       1 <0>        -1.0698
     27 O5          4.5023   -5.8045    8.3236 O.2       1 <0>        -1.0664
     28 O6          4.0325   -7.3105    6.5003 O.3       1 <0>        -1.0693
     29 C17        -1.1365   -3.1309    6.5304 C.ar      1 <0>        -0.0633
     30 C18        -1.5289   -1.8975    6.0151 C.ar      1 <0>        -0.0970
     31 C19        -2.8391   -1.4829    6.1436 C.ar      1 <0>        -0.1297
     32 C20        -3.7652   -2.2879    6.7832 C.ar      1 <0>        -0.1046
     33 C21        -3.3864   -3.5131    7.2984 C.ar      1 <0>        -0.1433
     34 C22        -2.0759   -3.9445    7.1710 C.ar      1 <0>         0.1191
     35 O7         -1.7036   -5.1512    7.6721 O.3       1 <0>        -0.4911
     36 H2         -0.9596    1.9047    0.0260 H         1 <0>         0.1451
     37 H3          1.1525    3.1682    0.0080 H         1 <0>         0.1493
     38 H4          3.3038    1.9724   -0.0200 H         1 <0>         0.1482
     39 H5          1.2211   -1.7595   -0.0193 H         1 <0>         0.1264
     40 H6         -0.9260   -0.5563    0.0082 H         1 <0>         0.1468
     41 H7          4.6654   -2.9383    3.3365 H         1 <0>         0.0968
     42 H8          3.4103   -1.8968    4.0584 H         1 <0>         0.1336
     43 H9          3.7769   -5.5122    2.7849 H         1 <0>         0.0880
     44 H10         2.0697   -5.7802    3.2261 H         1 <0>         0.1288
     45 H11         2.3995   -5.3575    0.7621 H         1 <0>         0.1496
     46 H12         1.3357   -4.1619    1.5416 H         1 <0>         0.1359
     47 H13         3.0142   -3.1774    0.1163 H         1 <0>         0.4252
     48 H14         0.3668   -3.1678    4.2880 H         1 <0>         0.1177
     49 H15         0.4733   -4.0904    8.4713 H         1 <0>         0.1242
     50 H16         2.8052   -4.8371    8.2483 H         1 <0>         0.1747
     51 H17         4.8245   -4.4170    5.4036 H         1 <0>         0.4017
     52 H18        -0.8086   -1.2663    5.5159 H         1 <0>         0.1237
     53 H19        -3.1424   -0.5265    5.7438 H         1 <0>         0.1244
     54 H20        -4.7886   -1.9570    6.8805 H         1 <0>         0.1262
     55 H21        -4.1135   -4.1367    7.7972 H         1 <0>         0.1305
     56 H22        -1.3994   -5.1192    8.5895 H         1 <0>         0.3926
     57 H23         4.2075   -3.7936    1.0682 H         1 <0>         0.4384
@<TRIPOS>BOND
     1    1    6 ar
     2    1    2 ar
     3    1   36 1
     4    2    3 ar
     5    2   37 1
     6    3    4 ar
     7    3   38 1
     8    4    5 ar
     9    4    7 1
    10    5    6 ar
    11    5   39 1
    12    6   40 1
    13    7    8 1
    14    8    9 2
    15    8   10 2
    16    8   11 1
    17   11   12 1
    18   11   17 1
    19   11   13 1
    20   13   14 1
    21   13   41 1
    22   13   42 1
    23   14   15 1
    24   14   18 1
    25   15   16 1
    26   15   43 1
    27   15   44 1
    28   16   17 1
    29   16   45 1
    30   16   46 1
    31   17   47 1
    32   17   57 1
    33   18   23 ar
    34   18   19 ar
    35   19   20 ar
    36   19   48 1
    37   20   21 ar
    38   20   29 1
    39   21   22 ar
    40   21   49 1
    41   22   23 ar
    42   22   50 1
    43   23   24 1
    44   24   25 1
    45   24   51 1
    46   25   26 2
    47   25   27 2
    48   25   28 1
    49   29   34 ar
    50   29   30 ar
    51   30   31 ar
    52   30   52 1
    53   31   32 ar
    54   31   53 1
    55   32   33 ar
    56   32   54 1
    57   33   34 ar
    58   33   55 1
    59   34   35 1
    60   35   56 1
@<TRIPOS>MOLECULE
ZINC44699545
   61    64     0     0     0
SMALL
USER_CHARGES

@<TRIPOS>ATOM
      1 C1          0.0123    1.6225    0.2391 C.3       1 <0>        -0.1475
      2 C2          0.0127    0.0933    0.1887 C.3       1 <0>        -0.0822
      3 C3          0.6671   -0.3671   -1.0883 C.ar      1 <0>        -0.0918
      4 C4         -0.1029   -0.6537   -2.1942 C.ar      1 <0>        -0.1015
      5 C5          0.4883   -1.0785   -3.3758 C.ar      1 <0>        -0.1442
      6 C6          1.8444   -1.2198   -3.4623 C.ar      1 <0>        -0.0724
      7 C7          2.6460   -0.9354   -2.3546 C.ar      1 <0>        -0.0907
      8 C8          2.0496   -0.4980   -1.1545 C.ar      1 <0>         0.1056
      9 N1          3.0646   -0.2870   -0.2452 N.pl3     1 <0>        -0.5750
     10 H1          2.9405    0.0159    0.6679 H         1 <0>         0.4120
     11 C9          4.2683   -0.5675   -0.8202 C.2       1 <0>         0.0572
     12 C10         4.0781   -0.9726   -2.0936 C.2       1 <0>        -0.1541
     13 C11         5.2034   -1.3595   -3.0189 C.3       1 <0>        -0.0782
     14 C12         6.5153   -0.8598   -2.3957 C.3       1 <0>         0.0482
     15 O1          6.5549   -1.2241   -1.0132 O.3       1 <0>        -0.3323
     16 C13         5.6396   -0.4778   -0.1906 C.3       1 <0>         0.2003
     17 C14         5.6078   -1.0984    1.2075 C.3       1 <0>        -0.1220
     18 C15         5.0803   -2.5318    1.1174 C.3       1 <0>        -0.1447
     19 C16         6.0702    0.9874   -0.0968 C.3       1 <0>        -0.1351
     20 C17         7.4744    1.0645    0.4447 C.2       1 <0>         0.4617
     21 O2          8.0428    0.0577    0.7957 O.2       1 <0>        -0.4651
     22 O3          8.0938    2.2518    0.5370 O.3       1 <0>        -0.3592
     23 C18         9.4240    2.2507    1.0593 C.3       1 <0>         0.2161
     24 H2          9.4478    1.6869    1.9919 H         1 <0>         0.1023
     25 C19         9.8705    3.6913    1.3220 C.3       1 <0>         0.0680
     26 H3          9.1728    4.1692    2.0097 H         1 <0>         0.0639
     27 C20         9.8918    4.4606   -0.0024 C.3       1 <0>         0.1198
     28 H4         10.2624    5.4712    0.1689 H         1 <0>         0.0719
     29 C21        10.8155    3.7360   -0.9863 C.3       1 <0>         0.1062
     30 H5         10.7936    4.2458   -1.9494 H         1 <0>         0.0697
     31 C22        10.3325    2.2936   -1.1598 C.3       1 <0>        -0.0021
     32 H6          9.3298    2.2950   -1.5873 H         1 <0>         0.0638
     33 O4         10.3070    1.6445    0.1132 O.3       1 <0>        -0.3200
     34 C23        11.2705    1.5570   -2.0810 C.2       1 <0>         0.5030
     35 O5         11.9306    0.6228   -1.6590 O.co2     1 <0>        -0.6634
     36 O6         11.3692    1.8951   -3.2482 O.co2     1 <0>        -0.6901
     37 O7         12.1504    3.7357   -0.4763 O.3       1 <0>        -0.5406
     38 O8          8.5697    4.5212   -0.5413 O.3       1 <0>        -0.5342
     39 O9         11.1795    3.6885    1.8952 O.3       1 <0>        -0.5110
     40 H7          1.0389    1.9874    0.2049 H         1 <0>         0.0518
     41 H8         -0.5411    2.0140   -0.6144 H         1 <0>         0.0586
     42 H9         -0.4611    1.9555    1.1628 H         1 <0>         0.0570
     43 H10         0.5661   -0.2982    1.0423 H         1 <0>         0.0625
     44 H11        -1.0139   -0.2715    0.2229 H         1 <0>         0.0742
     45 H12        -1.1763   -0.5472   -2.1411 H         1 <0>         0.1221
     46 H13        -0.1288   -1.2996   -4.2341 H         1 <0>         0.1206
     47 H14         2.2958   -1.5512   -4.3857 H         1 <0>         0.1204
     48 H15         5.2357   -2.4436   -3.1279 H         1 <0>         0.0808
     49 H16         5.0566   -0.8939   -3.9935 H         1 <0>         0.0827
     50 H17         7.3599   -1.3123   -2.9151 H         1 <0>         0.1075
     51 H18         6.5711    0.2250   -2.4874 H         1 <0>         0.0555
     52 H19         6.6151   -1.1075    1.6240 H         1 <0>         0.1060
     53 H20         4.9537   -0.5104    1.8513 H         1 <0>         0.0637
     54 H21         5.7795   -3.1409    0.5445 H         1 <0>         0.0671
     55 H22         4.9765   -2.9445    2.1209 H         1 <0>         0.0523
     56 H23         4.1091   -2.5311    0.6225 H         1 <0>         0.0500
     57 H24         6.0376    1.4398   -1.0879 H         1 <0>         0.1111
     58 H25         5.3939    1.5229    0.5695 H         1 <0>         0.1094
     59 H26        12.7904    3.2923   -1.0497 H         1 <0>         0.3849
     60 H27         7.9302    4.9628    0.0341 H         1 <0>         0.3766
     61 H28        11.2399    3.2138    2.7355 H         1 <0>         0.3727
@<TRIPOS>BOND
     1    1    2 1
     2    1   40 1
     3    1   41 1
     4    1   42 1
     5    2    3 1
     6    2   43 1
     7    2   44 1
     8    3    8 ar
     9    3    4 ar
    10    4    5 ar
    11    4   45 1
    12    5    6 ar
    13    5   46 1
    14    6    7 ar
    15    6   47 1
    16    7   12 1
    17    7    8 ar
    18    8    9 1
    19    9   10 1
    20    9   11 1
    21   11   16 1
    22   11   12 2
    23   12   13 1
    24   13   14 1
    25   13   48 1
    26   13   49 1
    27   14   15 1
    28   14   50 1
    29   14   51 1
    30   15   16 1
    31   16   17 1
    32   16   19 1
    33   17   18 1
    34   17   52 1
    35   17   53 1
    36   18   54 1
    37   18   55 1
    38   18   56 1
    39   19   20 1
    40   19   57 1
    41   19   58 1
    42   20   21 2
    43   20   22 1
    44   22   23 1
    45   23   24 1
    46   23   33 1
    47   23   25 1
    48   25   26 1
    49   25   27 1
    50   25   39 1
    51   27   28 1
    52   27   29 1
    53   27   38 1
    54   29   30 1
    55   29   31 1
    56   29   37 1
    57   31   32 1
    58   31   33 1
    59   31   34 1
    60   34   35 2
    61   34   36 1
    62   37   59 1
    63   38   60 1
    64   39   61 1
@<TRIPOS>MOLECULE
ZINC63552516
   54    57     0     0     0
SMALL
USER_CHARGES

@<TRIPOS>ATOM
      1 C1         -0.0187    1.5258    0.0104 C.3       1 <0>        -0.1538
      2 C2          0.0021   -0.0041    0.0020 C.3       1 <0>         0.0551
      3 O1          0.6932   -0.4774    1.1597 O.3       1 <0>        -0.3121
      4 C3          0.8021   -1.8252    1.3058 C.ar      1 <0>         0.1116
      5 C4          0.2639   -2.6831    0.3581 C.ar      1 <0>        -0.1653
      6 C5          0.3680   -4.0475    0.4965 C.ar      1 <0>        -0.1103
      7 C6          1.0225   -4.6212    1.6007 C.ar      1 <0>         0.1331
      8 C7          1.5553   -3.7325    2.5393 C.ar      1 <0>        -0.0980
      9 C8          1.4590   -2.3659    2.4035 C.ar      1 <0>        -0.0780
     10 S1          2.2997   -4.7617    3.7842 S.3       1 <0>        -0.1189
     11 C9          1.8970   -6.3957    3.0466 C.3       1 <0>         0.4207
     12 H1          2.8034   -6.9492    2.8012 H         1 <0>         0.1373
     13 N1          1.1803   -5.9900    1.8301 N.pl3     1 <0>        -0.7407
     14 N2          1.0311   -7.1756    3.9345 N.am      1 <0>        -0.7274
     15 C10         1.5501   -7.7799    5.0216 C.2       1 <0>         0.5255
     16 O2          2.7339   -7.6781    5.2649 O.2       1 <0>        -0.5186
     17 C11         0.6594   -8.5822    5.9349 C.3       1 <0>        -0.1474
     18 C12         1.4915   -9.1572    7.0829 C.3       1 <0>         0.1282
     19 N3          0.6257   -9.9371    7.9707 N.pl3     1 <0>        -1.1188
     20 S2          1.2924  -10.9737    9.0767 S.o2      1 <0>         2.7003
     21 O3          0.2111  -11.5528    9.7940 O.2       1 <0>        -0.9535
     22 O4          2.2474  -11.7574    8.3745 O.2       1 <0>        -0.9491
     23 C13         2.1951   -9.9945   10.2304 C.ar      1 <0>        -0.7101
     24 C14         3.5319   -9.7064    9.9907 C.ar      1 <0>         0.0252
     25 C15         4.2571   -8.9426   10.8794 C.ar      1 <0>        -0.1773
     26 C16         3.6450   -8.4536   12.0290 C.ar      1 <0>         0.2370
     27 C17         2.2894   -8.7474   12.2683 C.ar      1 <0>        -0.1548
     28 C18         1.5718   -9.5209   11.3498 C.ar      1 <0>         0.0535
     29 C19         1.6542   -8.2282   13.4809 C.2       1 <0>        -0.0122
     30 C20         2.3983   -7.4803   14.3326 C.2       1 <0>        -0.2137
     31 C21         3.7544   -7.2142   14.0457 C.2       1 <0>         0.5360
     32 O5          4.4053   -6.5397   14.8247 O.2       1 <0>        -0.5266
     33 N4          4.3464   -7.6866   12.9347 N.am      1 <0>        -0.6311
     34 H2          5.2806   -7.4854   12.7685 H         1 <0>         0.4198
     35 H3          1.0039    1.9031    0.0027 H         1 <0>         0.0673
     36 H4         -0.5459    1.8868   -0.8726 H         1 <0>         0.0795
     37 H5         -0.5289    1.8773    0.9072 H         1 <0>         0.0671
     38 H6         -1.0205   -0.3814    0.0098 H         1 <0>         0.0622
     39 H7          0.5123   -0.3556   -0.8948 H         1 <0>         0.0626
     40 H8         -0.2451   -2.2733   -0.5018 H         1 <0>         0.1342
     41 H9         -0.0616   -4.6906   -0.2574 H         1 <0>         0.1271
     42 H10         1.8895   -1.7159    3.1509 H         1 <0>         0.1392
     43 H11         0.8292   -6.6480    1.2098 H         1 <0>         0.4143
     44 H12         0.0843   -7.2570    3.7399 H         1 <0>         0.4060
     45 H13        -0.1212   -7.9377    6.3393 H         1 <0>         0.1078
     46 H14         0.2029   -9.3972    5.3733 H         1 <0>         0.1092
     47 H15         2.2721   -9.8016    6.6785 H         1 <0>         0.0933
     48 H16         1.9480   -8.3422    7.6445 H         1 <0>         0.0784
     49 H17        -0.3382   -9.8463    7.9108 H         1 <0>         0.4203
     50 H18         4.0086  -10.0852    9.0987 H         1 <0>         0.1516
     51 H19         5.2967   -8.7246   10.6842 H         1 <0>         0.1467
     52 H20         0.5305   -9.7459   11.5270 H         1 <0>         0.1543
     53 H21         0.6156   -8.4361   13.6922 H         1 <0>         0.1531
     54 H22         1.9517   -7.0864   15.2335 H         1 <0>         0.1603
@<TRIPOS>BOND
     1    1    2 1
     2    1   35 1
     3    1   36 1
     4    1   37 1
     5    2    3 1
     6    2   38 1
     7    2   39 1
     8    3    4 1
     9    4    9 ar
    10    4    5 ar
    11    5    6 ar
    12    5   40 1
    13    6    7 ar
    14    6   41 1
    15    7   13 1
    16    7    8 ar
    17    8    9 ar
    18    8   10 1
    19    9   42 1
    20   10   11 1
    21   11   12 1
    22   11   13 1
    23   11   14 1
    24   13   43 1
    25   14   15 am
    26   14   44 1
    27   15   16 2
    28   15   17 1
    29   17   18 1
    30   17   45 1
    31   17   46 1
    32   18   19 1
    33   18   47 1
    34   18   48 1
    35   19   20 1
    36   19   49 1
    37   20   21 2
    38   20   22 2
    39   20   23 1
    40   23   28 ar
    41   23   24 ar
    42   24   25 ar
    43   24   50 1
    44   25   26 ar
    45   25   51 1
    46   26   33 1
    47   26   27 ar
    48   27   28 ar
    49   27   29 1
    50   28   52 1
    51   29   30 2
    52   29   53 1
    53   30   31 1
    54   30   54 1
    55   31   32 2
    56   31   33 am
    57   33   34 1
@<TRIPOS>MOLECULE
ZINC09669690
   57    61     0     0     0
SMALL
USER_CHARGES
ethyl 4-[[4-amino-5-(7,10-dioxabicyclo[4.4.0]deca-2,4,11-trien-8-yl)-1,2,4-triazol-3-yl]sulfanylmethyl]-6-(2-furyl)-2-oxo-3,6-dihydro-1H-pyrimidine-5-carboxylate
@<TRIPOS>ATOM
      1 C1          2.8550    3.1465   -2.6267 C.3       1 <0>        -0.1526
      2 C2          1.4554    2.8536   -3.1710 C.3       1 <0>         0.0628
      3 O1          0.5649    2.5984   -2.0829 O.3       1 <0>        -0.3396
      4 C3         -0.7186    2.3208   -2.3938 C.2       1 <0>         0.5365
      5 O2         -1.0709    2.2964   -3.5582 O.2       1 <0>        -0.4985
      6 C4         -1.6544    2.0582   -1.3660 C.2       1 <0>        -0.2545
      7 C5         -2.9717    1.9342   -1.6362 C.2       1 <0>         0.2718
      8 N1         -3.8741    1.6811   -0.6430 N.am      1 <0>        -0.6420
      9 C6         -3.5395    1.5385    0.6456 C.2       1 <0>         0.7110
     10 O3         -4.4147    1.3144    1.4589 O.2       1 <0>        -0.5507
     11 N2         -2.2642    1.6353    1.0703 N.am      1 <0>        -0.7097
     12 C7         -1.2129    1.9070    0.0756 C.3       1 <0>         0.2835
     13 H1         -0.7026    2.8245    0.3687 H         1 <0>         0.1197
     14 C8         -0.2113    0.7827    0.1392 C.2       1 <0>        -0.0490
     15 C9          1.1259    0.9220    0.1833 C.2       1 <0>        -0.1650
     16 C10         1.6721   -0.3812    0.2290 C.2       1 <0>        -0.2167
     17 C11         0.6361   -1.2389    0.2101 C.2       1 <0>        -0.0318
     18 O4         -0.5023   -0.5283    0.1557 O.3       1 <0>        -0.1680
     19 C12        -3.4537    2.0779   -3.0568 C.3       1 <0>        -0.1436
     20 S1         -3.7041    0.4367   -3.7779 S.3       1 <0>         0.0837
     21 C13        -4.2503    0.8911   -5.3903 C.2       1 <0>         0.1956
     22 N3         -4.4072    2.1122   -5.8461 N.2       1 <0>        -0.2785
     23 N4         -4.8162    2.0745   -7.0640 N.2       1 <0>        -0.2257
     24 C14        -4.9517    0.8381   -7.4522 C.2       1 <0>         0.1410
     25 N5         -4.5961    0.0397   -6.4003 N.pl3     1 <0>        -0.2982
     26 N6         -4.5886   -1.3258   -6.3668 N.3       1 <0>        -0.5837
     27 C15        -5.4145    0.3737   -8.8091 C.3       1 <0>         0.1529
     28 H2         -5.1705   -0.6805   -8.9398 H         1 <0>         0.0961
     29 C16        -6.9309    0.5737   -8.9353 C.3       1 <0>         0.0362
     30 O5         -7.3342    0.1358  -10.2374 O.3       1 <0>        -0.2991
     31 C17        -6.5757    0.5560  -11.2865 C.ar      1 <0>         0.0447
     32 C18        -7.0895    0.4784  -12.5725 C.ar      1 <0>        -0.1098
     33 C19        -6.3300    0.8979  -13.6481 C.ar      1 <0>        -0.1119
     34 C20        -5.0565    1.3965  -13.4456 C.ar      1 <0>        -0.1112
     35 C21        -4.5391    1.4780  -12.1668 C.ar      1 <0>        -0.1075
     36 C22        -5.2964    1.0592  -11.0828 C.ar      1 <0>         0.0505
     37 O6         -4.7743    1.1485   -9.8289 O.3       1 <0>        -0.2841
     38 H3          2.8163    4.0203   -1.9762 H         1 <0>         0.0670
     39 H4          3.2114    2.2867   -2.0594 H         1 <0>         0.0675
     40 H5          3.5342    3.3411   -3.4566 H         1 <0>         0.0795
     41 H6          1.4940    1.9798   -3.8214 H         1 <0>         0.0684
     42 H7          1.0989    3.7134   -3.7383 H         1 <0>         0.0694
     43 H8         -4.8100    1.5997   -0.8847 H         1 <0>         0.4336
     44 H9         -2.0439    1.5282    2.0089 H         1 <0>         0.4376
     45 H10         1.6765    1.8510    0.1837 H         1 <0>         0.1529
     46 H11         2.7201   -0.6387    0.2705 H         1 <0>         0.1492
     47 H12         0.7075   -2.3163    0.2349 H         1 <0>         0.2020
     48 H13        -4.3954    2.6268   -3.0672 H         1 <0>         0.1186
     49 H14        -2.7100    2.6212   -3.6397 H         1 <0>         0.1851
     50 H15        -5.4782   -1.6848   -6.0543 H         1 <0>         0.3714
     51 H16        -4.3404   -1.7082   -7.2670 H         1 <0>         0.3794
     52 H17        -7.4438   -0.0147   -8.1744 H         1 <0>         0.1226
     53 H18        -7.1742    1.6288   -8.8106 H         1 <0>         0.0943
     54 H19        -8.0841    0.0894  -12.7334 H         1 <0>         0.1374
     55 H20        -6.7322    0.8368  -14.6485 H         1 <0>         0.1356
     56 H21        -4.4650    1.7226  -14.2883 H         1 <0>         0.1360
     57 H22        -3.5439    1.8677  -12.0113 H         1 <0>         0.1375
@<TRIPOS>BOND
     1    1    2 1
     2    1   38 1
     3    1   39 1
     4    1   40 1
     5    2    3 1
     6    2   41 1
     7    2   42 1
     8    3    4 1
     9    4    5 2
    10    4    6 1
    11    6   12 1
    12    6    7 2
    13    7    8 1
    14    7   19 1
    15    8    9 am
    16    8   43 1
    17    9   10 2
    18    9   11 am
    19   11   12 1
    20   11   44 1
    21   12   13 1
    22   12   14 1
    23   14   18 1
    24   14   15 2
    25   15   16 1
    26   15   45 1
    27   16   17 2
    28   16   46 1
    29   17   18 1
    30   17   47 1
    31   19   20 1
    32   19   48 1
    33   19   49 1
    34   20   21 1
    35   21   25 1
    36   21   22 2
    37   22   23 1
    38   23   24 2
    39   24   25 1
    40   24   27 1
    41   25   26 1
    42   26   50 1
    43   26   51 1
    44   27   28 1
    45   27   37 1
    46   27   29 1
    47   29   30 1
    48   29   52 1
    49   29   53 1
    50   30   31 1
    51   31   36 ar
    52   31   32 ar
    53   32   33 ar
    54   32   54 1
    55   33   34 ar
    56   33   55 1
    57   34   35 ar
    58   34   56 1
    59   35   36 ar
    60   35   57 1
    61   36   37 1
@<TRIPOS>MOLECULE
ZINC20790998
   79    82     0     0     0
SMALL
USER_CHARGES
2-[[(4aR,8aS)-6-(bis(2-hydroxyethyl)amino)-4,8-bis(1-piperidyl)-4a,8a-dihydropyrimido[5,4-d]pyrimidin-2-yl]-(2-hydroxyethyl)amino]ethanol
@<TRIPOS>ATOM
      1 C1         -0.3393    0.6962    0.2298 C.3       1 <0>        -0.1280
      2 C2         -1.0582    1.1897    1.4875 C.3       1 <0>        -0.1407
      3 C3         -1.0465    2.7214    1.5096 C.3       1 <0>         0.0871
      4 N1         -1.6226    3.2167    0.2520 N.pl3     1 <0>        -0.5136
      5 C4         -1.0648    2.7345   -1.0188 C.3       1 <0>         0.0961
      6 C5         -1.0760    1.2026   -1.0124 C.3       1 <0>        -0.1351
      7 C6         -2.6529    4.1044    0.2641 C.2       1 <0>         0.5293
      8 N2         -3.2770    4.4500   -0.8433 N.2       1 <0>        -0.6305
      9 C7         -4.3290    5.3085   -0.8150 C.cat     1 <0>         0.6793
     10 N3         -4.4738    6.1909    0.1486 N.pl3     1 <0>        -0.6614
     11 C8         -3.4836    6.2021    1.2175 C.2       1 <0>        -0.1607
     12 C9         -3.1265    4.7398    1.5393 C.3       1 <0>         0.1220
     13 H1         -3.9427    4.1148    1.9306 H         1 <0>         0.0645
     14 N4         -2.1312    4.7642    2.6033 N.2       1 <0>        -0.5942
     15 C10        -2.2799    5.6484    3.5645 C.2       1 <0>         0.6299
     16 N5         -3.3368    6.5007    3.5943 N.pl3     1 <0>        -0.6596
     17 C11        -3.9726    6.8327    2.4894 C.2       1 <0>         0.4928
     18 N6         -5.0108    7.7112    2.5032 N.pl3     1 <0>        -0.5831
     19 C12        -5.5700    8.1894    3.7750 C.3       1 <0>         0.0963
     20 C13        -5.5700    9.7256    3.7617 C.3       1 <0>        -0.1400
     21 C14        -6.3183   10.2193    2.5214 C.3       1 <0>        -0.1258
     22 C15        -5.6019    9.7271    1.2618 C.3       1 <0>        -0.1385
     23 C16        -5.5986    8.1952    1.2466 C.3       1 <0>         0.0682
     24 N7         -1.3376    5.7120    4.5698 N.pl3     1 <0>        -0.5697
     25 C17        -1.4843    6.6902    5.6505 C.3       1 <0>         0.1096
     26 C18        -2.2893    6.0698    6.7941 C.3       1 <0>         0.0641
     27 O1         -1.5516    4.9860    7.3628 O.3       1 <0>        -0.5920
     28 C19        -0.1900    4.8014    4.5569 C.3       1 <0>         0.1390
     29 C20         0.9634    5.4454    3.7850 C.3       1 <0>         0.0679
     30 O2          1.4121    6.6092    4.4823 O.3       1 <0>        -0.6032
     31 N8         -5.2672    5.2572   -1.8249 N.pl3     1 <0>        -0.5568
     32 C21        -5.1247    4.2814   -2.9082 C.3       1 <0>         0.1264
     33 C22        -5.8415    2.9853   -2.5247 C.3       1 <0>         0.0696
     34 O3         -7.2453    3.2306   -2.4192 O.3       1 <0>        -0.6045
     35 C23        -6.4062    6.1786   -1.8141 C.3       1 <0>         0.1021
     36 C24        -6.0362    7.4557   -2.5710 C.3       1 <0>         0.0615
     37 O4         -5.8137    7.1458   -3.9481 O.3       1 <0>        -0.5921
     38 H2         -0.3244   -0.4037    0.2243 H         1 <0>         0.0725
     39 H3          0.6927    1.0769    0.2247 H         1 <0>         0.0697
     40 H4         -2.0976    0.8296    1.4809 H         1 <0>         0.0650
     41 H5         -0.5424    0.8047    2.3796 H         1 <0>         0.0855
     42 H6         -1.6440    3.0804    2.3605 H         1 <0>         0.1415
     43 H7         -0.0112    3.0788    1.6119 H         1 <0>         0.0820
     44 H8         -1.6765    3.1085   -1.8531 H         1 <0>         0.1062
     45 H9         -0.0329    3.0995   -1.1283 H         1 <0>         0.0839
     46 H10        -0.5729    0.8270   -1.9156 H         1 <0>         0.0854
     47 H11        -2.1151    0.8422   -0.9949 H         1 <0>         0.0683
     48 H12        -6.5983    7.8153    3.8871 H         1 <0>         0.0982
     49 H13        -4.9532    7.8215    4.6082 H         1 <0>         0.0776
     50 H14        -6.0698   10.1001    4.6672 H         1 <0>         0.0931
     51 H15        -4.5331   10.0921    3.7370 H         1 <0>         0.0760
     52 H16        -7.3466    9.8288    2.5339 H         1 <0>         0.0733
     53 H17        -6.3437   11.3190    2.5220 H         1 <0>         0.0842
     54 H18        -6.1266   10.1029    0.3710 H         1 <0>         0.0942
     55 H19        -4.5661   10.0974    1.2607 H         1 <0>         0.0820
     56 H20        -5.0003    7.8319    0.3981 H         1 <0>         0.1321
     57 H21        -6.6289    7.8209    1.1556 H         1 <0>         0.0925
     58 H22        -0.4896    6.9820    6.0184 H         1 <0>         0.1189
     59 H23        -2.0104    7.5789    5.2718 H         1 <0>         0.0809
     60 H24        -2.4763    6.8310    7.5659 H         1 <0>         0.0605
     61 H25        -3.2490    5.6968    6.4068 H         1 <0>         0.0320
     62 H26        -1.9732    4.4146    8.2029 H         1 <0>         0.4178
     63 H27         0.1284    4.5982    5.5900 H         1 <0>         0.1008
     64 H28        -0.4760    3.8579    4.0691 H         1 <0>         0.1025
     65 H29         1.7924    4.7276    3.6981 H         1 <0>         0.0544
     66 H30         0.6183    5.7303    2.7802 H         1 <0>         0.0477
     67 H31         2.2408    7.2081    4.0766 H         1 <0>         0.4127
     68 H32        -5.5694    4.6878   -3.8286 H         1 <0>         0.1079
     69 H33        -4.0577    4.0742   -3.0770 H         1 <0>         0.1132
     70 H34        -5.6594    2.2233   -3.2969 H         1 <0>         0.0616
     71 H35        -5.4583    2.6265   -1.5580 H         1 <0>         0.0404
     72 H36        -7.9281    2.4112   -2.1502 H         1 <0>         0.4149
     73 H37        -7.2690    5.7007   -2.3010 H         1 <0>         0.1276
     74 H38        -6.6646    6.4301   -0.7749 H         1 <0>         0.0761
     75 H39        -6.8574    8.1827   -2.4868 H         1 <0>         0.0652
     76 H40        -5.1203    7.8855   -2.1393 H         1 <0>         0.0416
     77 H41        -5.5362    7.9430   -4.6534 H         1 <0>         0.4226
     78 H42        -3.6742    6.9253    4.5513 H         1 <0>         0.4318
     79 H43        -5.3225    6.8905    0.1308 H         1 <0>         0.4297
@<TRIPOS>BOND
     1    1    6 1
     2    1    2 1
     3    1   38 1
     4    1   39 1
     5    2    3 1
     6    2   40 1
     7    2   41 1
     8    3    4 1
     9    3   42 1
    10    3   43 1
    11    4    5 1
    12    4    7 1
    13    5    6 1
    14    5   44 1
    15    5   45 1
    16    6   46 1
    17    6   47 1
    18    7   12 1
    19    7    8 2
    20    8    9 1
    21    9   10 2
    22    9   31 1
    23   10   11 1
    24   10   79 1
    25   11   17 2
    26   11   12 1
    27   12   13 1
    28   12   14 1
    29   14   15 2
    30   15   16 1
    31   15   24 1
    32   16   17 1
    33   16   78 1
    34   17   18 1
    35   18   23 1
    36   18   19 1
    37   19   20 1
    38   19   48 1
    39   19   49 1
    40   20   21 1
    41   20   50 1
    42   20   51 1
    43   21   22 1
    44   21   52 1
    45   21   53 1
    46   22   23 1
    47   22   54 1
    48   22   55 1
    49   23   56 1
    50   23   57 1
    51   24   25 1
    52   24   28 1
    53   25   26 1
    54   25   58 1
    55   25   59 1
    56   26   27 1
    57   26   60 1
    58   26   61 1
    59   27   62 1
    60   28   29 1
    61   28   63 1
    62   28   64 1
    63   29   30 1
    64   29   65 1
    65   29   66 1
    66   30   67 1
    67   31   32 1
    68   31   35 1
    69   32   33 1
    70   32   68 1
    71   32   69 1
    72   33   34 1
    73   33   70 1
    74   33   71 1
    75   34   72 1
    76   35   36 1
    77   35   73 1
    78   35   74 1
    79   36   37 1
    80   36   75 1
    81   36   76 1
    82   37   77 1
@<TRIPOS>MOLECULE
ZINC24781261
   70    72     0     0     0
SMALL
USER_CHARGES
N-[(4S)-4-(4-methoxyphenyl)-4-methyl-2,5-dioxo-imidazolidin-1-yl]-2-[4-[2-(3-methoxypropylamino)-2-oxo-ethyl]piperazin-1-yl]acetamide
@<TRIPOS>ATOM
      1 C1          0.0881   -4.8056   -1.4569 C.3       1 <0>        -0.1472
      2 C2          0.0600   -4.2770   -0.0213 C.3       1 <0>         0.1764
      3 C3          1.2459   -4.7986    0.7657 C.2       1 <0>         0.5374
      4 O1          2.4203   -4.6077    0.5331 O.2       1 <0>        -0.4473
      5 N1          0.7231   -5.5195    1.7773 N.am      1 <0>        -0.3737
      6 C4         -0.6142   -5.5259    1.7391 C.2       1 <0>         0.7215
      7 O2         -1.3104   -6.1086    2.5472 O.2       1 <0>        -0.5311
      8 N2         -1.1022   -4.8151    0.7064 N.am      1 <0>        -0.7198
      9 N3          1.4859   -6.1813    2.7484 N.am      1 <0>        -0.5147
     10 C5          1.6219   -7.5213    2.7006 C.2       1 <0>         0.5237
     11 O3          1.0839   -8.1543    1.8170 O.2       1 <0>        -0.5025
     12 C6          2.4424   -8.2331    3.7452 C.3       1 <0>         0.0467
     13 N4          2.4350   -9.6768    3.4737 N.3       1 <0>        -0.5244
     14 C7          1.0884  -10.2387    3.6487 C.3       1 <0>         0.0211
     15 C8          1.1066  -11.7241    3.2805 C.3       1 <0>        -0.0017
     16 N5          2.0808  -12.4246    4.1290 N.4       1 <0>        -0.3903
     17 C9          3.4274  -11.8627    3.9540 C.3       1 <0>         0.0029
     18 C10         3.4092  -10.3772    4.3222 C.3       1 <0>         0.0271
     19 C11         2.0734  -13.8683    3.8575 C.3       1 <0>        -0.0273
     20 C12         0.7498  -14.4521    4.2799 C.2       1 <0>         0.5005
     21 O4         -0.1033  -13.7360    4.7599 O.2       1 <0>        -0.5331
     22 N6          0.5142  -15.7699    4.1243 N.am      1 <0>        -0.7137
     23 C13        -0.7725  -16.3375    4.5350 C.3       1 <0>         0.1196
     24 C14        -0.7802  -17.8411    4.2522 C.3       1 <0>        -0.1339
     25 C15        -2.1239  -18.4338    4.6810 C.3       1 <0>         0.0606
     26 O5         -2.1311  -19.8382    4.4169 O.3       1 <0>        -0.3914
     27 C16        -3.3478  -20.4922    4.7829 C.3       1 <0>         0.0275
     28 C17         0.0396   -2.7702   -0.0131 C.ar      1 <0>        -0.1444
     29 C18        -1.1677   -2.0964    0.0020 C.ar      1 <0>        -0.0537
     30 C19        -1.1891   -0.7152    0.0096 C.ar      1 <0>        -0.1482
     31 C20         0.0021   -0.0041    0.0020 C.ar      1 <0>         0.1439
     32 C21         1.2120   -0.6824   -0.0189 C.ar      1 <0>        -0.2028
     33 C22         1.2281   -2.0638   -0.0211 C.ar      1 <0>        -0.0664
     34 O6         -0.0164    1.3548    0.0095 O.3       1 <0>        -0.3128
     35 C23         1.2479    2.0208    0.0010 C.3       1 <0>         0.0206
     36 H1          0.9618   -4.3929   -1.9825 H         1 <0>         0.0888
     37 H2         -0.8313   -4.5004   -1.9781 H         1 <0>         0.0899
     38 H3          0.1540   -5.9035   -1.4421 H         1 <0>         0.0724
     39 H4         -2.1211   -4.5946    0.3554 H         1 <0>         0.4753
     40 H5          1.9738   -5.6072    3.5499 H         1 <0>         0.4552
     41 H6          3.4767   -7.8598    3.7161 H         1 <0>         0.1284
     42 H7          2.0126   -8.0449    4.7401 H         1 <0>         0.0882
     43 H8          0.7765  -10.1236    4.6973 H         1 <0>         0.0623
     44 H9          0.3813   -9.7066    2.9954 H         1 <0>         0.1394
     45 H10         0.1061  -12.1532    3.4382 H         1 <0>         0.1493
     46 H11         1.3914  -11.8365    2.2240 H         1 <0>         0.1335
     47 H12         4.1345  -12.3948    4.6074 H         1 <0>         0.1402
     48 H13         3.7393  -11.9778    2.9055 H         1 <0>         0.1390
     49 H14         4.4092   -9.9470    4.1642 H         1 <0>         0.1291
     50 H15         3.1239  -10.2637    5.3785 H         1 <0>         0.0663
     51 H16         2.2231  -14.0398    2.7813 H         1 <0>         0.1580
     52 H17         2.8843  -14.3517    4.4221 H         1 <0>         0.1611
     53 H18         1.2880  -16.4193    3.6889 H         1 <0>         0.4369
     54 H19        -0.9221  -16.1660    5.6112 H         1 <0>         0.0804
     55 H20        -1.5835  -15.8541    3.9705 H         1 <0>         0.0804
     56 H21        -0.6305  -18.0125    3.1760 H         1 <0>         0.0834
     57 H22         0.0307  -18.3246    4.8167 H         1 <0>         0.0834
     58 H23        -2.2736  -18.2623    5.7572 H         1 <0>         0.0548
     59 H24        -2.9348  -17.9504    4.1164 H         1 <0>         0.0549
     60 H25        -3.2726  -21.5644    4.5487 H         1 <0>         0.0932
     61 H26        -4.1843  -20.0519    4.2204 H         1 <0>         0.0457
     62 H27        -3.5231  -20.3638    5.8612 H         1 <0>         0.0456
     63 H28        -2.0947   -2.6505    0.0082 H         1 <0>         0.1303
     64 H29        -2.1324   -0.1893    0.0210 H         1 <0>         0.1389
     65 H30         2.1407   -0.1311   -0.0294 H         1 <0>         0.1350
     66 H31         2.1699   -2.5924   -0.0329 H         1 <0>         0.1402
     67 H32         1.0890    3.1092    0.0084 H         1 <0>         0.1070
     68 H33         1.8053    1.7377   -0.9041 H         1 <0>         0.0603
     69 H34         1.8225    1.7281    0.8921 H         1 <0>         0.0588
     70 H35         1.7851  -12.2777    5.1783 H         1 <0>         0.4456
@<TRIPOS>BOND
     1    1    2 1
     2    1   36 1
     3    1   37 1
     4    1   38 1
     5    2    8 1
     6    2    3 1
     7    2   28 1
     8    3    4 2
     9    3    5 am
    10    5    6 am
    11    5    9 1
    12    6    7 2
    13    6    8 am
    14    8   39 1
    15    9   10 am
    16    9   40 1
    17   10   11 2
    18   10   12 1
    19   12   13 1
    20   12   41 1
    21   12   42 1
    22   13   18 1
    23   13   14 1
    24   14   15 1
    25   14   43 1
    26   14   44 1
    27   15   16 1
    28   15   45 1
    29   15   46 1
    30   16   17 1
    31   16   19 1
    32   16   70 1
    33   17   18 1
    34   17   47 1
    35   17   48 1
    36   18   49 1
    37   18   50 1
    38   19   20 1
    39   19   51 1
    40   19   52 1
    41   20   21 2
    42   20   22 am
    43   22   23 1
    44   22   53 1
    45   23   24 1
    46   23   54 1
    47   23   55 1
    48   24   25 1
    49   24   56 1
    50   24   57 1
    51   25   26 1
    52   25   58 1
    53   25   59 1
    54   26   27 1
    55   27   60 1
    56   27   61 1
    57   27   62 1
    58   28   33 ar
    59   28   29 ar
    60   29   30 ar
    61   29   63 1
    62   30   31 ar
    63   30   64 1
    64   31   32 ar
    65   31   34 1
    66   32   33 ar
    67   32   65 1
    68   33   66 1
    69   34   35 1
    70   35   67 1
    71   35   68 1
    72   35   69 1
@<TRIPOS>MOLECULE
ZINC39916026
   61    64     0     0     0
SMALL
USER_CHARGES

@<TRIPOS>ATOM
      1 C1         -0.0173    1.4248    0.0099 C.3       1 <0>         0.0258
      2 O1          0.0021   -0.0041    0.0020 O.3       1 <0>        -0.3066
      3 C2          0.6062   -0.6075   -1.0564 C.ar      1 <0>         0.0999
      4 C3          1.1729    0.1590   -2.0621 C.ar      1 <0>        -0.1729
      5 C4          1.7870   -0.4560   -3.1371 C.ar      1 <0>        -0.1157
      6 C5          1.8372   -1.8356   -3.2121 C.ar      1 <0>        -0.1169
      7 C6          1.2734   -2.6062   -2.2124 C.ar      1 <0>        -0.1734
      8 C7          0.6617   -1.9961   -1.1290 C.ar      1 <0>         0.1002
      9 O2          0.1119   -2.7526   -0.1417 O.3       1 <0>        -0.3008
     10 C8          0.2064   -4.1715   -0.2827 C.3       1 <0>         0.0650
     11 C9         -0.4630   -4.8487    0.9148 C.3       1 <0>        -0.1388
     12 C10        -0.3618   -6.3679    0.7638 C.3       1 <0>         0.1153
     13 N1         -1.0028   -7.0164    1.9105 N.pl3     1 <0>        -0.4726
     14 C11        -0.3925   -7.3650    3.1044 C.ar      1 <0>         0.0592
     15 C12         0.8983   -7.2427    3.5956 C.ar      1 <0>        -0.1112
     16 C13         1.1976   -7.7014    4.8620 C.ar      1 <0>        -0.0975
     17 C14         0.2153   -8.2853    5.6481 C.ar      1 <0>        -0.1262
     18 C15        -1.0717   -8.4153    5.1763 C.ar      1 <0>        -0.0608
     19 C16        -1.3914   -7.9550    3.8963 C.ar      1 <0>         0.0567
     20 N2         -2.5391   -7.9411    3.1693 N.2       1 <0>        -0.4690
     21 C17        -2.3152   -7.3847    2.0041 C.2       1 <0>         0.2620
     22 S1         -3.5248   -7.1513    0.7442 S.3       1 <0>         0.0243
     23 C18        -5.0434   -7.8367    1.4615 C.3       1 <0>         0.0809
     24 H1         -4.8416   -8.8323    1.8567 H         1 <0>         0.0998
     25 C19        -6.1237   -7.9258    0.3804 C.3       1 <0>         0.0656
     26 H2         -6.2970   -6.9368   -0.0438 H         1 <0>         0.0920
     27 C20        -7.4201   -8.4486    1.0068 C.3       1 <0>         0.0906
     28 H3         -7.2603   -9.4576    1.3870 H         1 <0>         0.0776
     29 C21        -7.8260   -7.5249    2.1593 C.3       1 <0>         0.0891
     30 H4         -8.7174   -7.9203    2.6463 H         1 <0>         0.0850
     31 C22        -6.6800   -7.4513    3.1718 C.3       1 <0>         0.0995
     32 H5         -6.4997   -8.4418    3.5895 H         1 <0>         0.0863
     33 O3         -5.4970   -6.9877    2.5177 O.3       1 <0>        -0.3255
     34 C23        -7.0541   -6.4836    4.2963 C.3       1 <0>         0.0914
     35 O4         -6.0364   -6.5028    5.2994 O.3       1 <0>        -0.5623
     36 O5         -8.0997   -6.2181    1.6502 O.3       1 <0>        -0.5459
     37 O6         -8.4538   -8.4676    0.0204 O.3       1 <0>        -0.5548
     38 O7         -5.6957   -8.8189   -0.6498 O.3       1 <0>        -0.5539
     39 H6          1.0053    1.8021    0.0021 H         1 <0>         0.0552
     40 H7         -0.5445    1.7859   -0.8732 H         1 <0>         0.0555
     41 H8         -0.5275    1.7763    0.9067 H         1 <0>         0.1015
     42 H9          1.1344    1.2368   -2.0063 H         1 <0>         0.1357
     43 H10         2.2283    0.1425   -3.9203 H         1 <0>         0.1280
     44 H11         2.3175   -2.3124   -4.0537 H         1 <0>         0.1280
     45 H12         1.3136   -3.6837   -2.2735 H         1 <0>         0.1341
     46 H13        -0.2940   -4.4795   -1.2008 H         1 <0>         0.0669
     47 H14         1.2558   -4.4633   -0.3254 H         1 <0>         0.0657
     48 H15         0.0374   -4.5407    1.8329 H         1 <0>         0.0845
     49 H16        -1.5124   -4.5569    0.9575 H         1 <0>         0.0877
     50 H17        -0.8622   -6.6759   -0.1542 H         1 <0>         0.0977
     51 H18         0.6875   -6.6597    0.7212 H         1 <0>         0.0997
     52 H19         1.6678   -6.7896    2.9882 H         1 <0>         0.1221
     53 H20         2.2034   -7.6056    5.2435 H         1 <0>         0.1318
     54 H21         0.4618   -8.6409    6.6376 H         1 <0>         0.1316
     55 H22        -1.8315   -8.8716    5.7934 H         1 <0>         0.1304
     56 H23        -7.1470   -5.4756    3.8923 H         1 <0>         0.0667
     57 H24        -8.0038   -6.7877    4.7364 H         1 <0>         0.0627
     58 H25        -6.2079   -5.9113    6.0449 H         1 <0>         0.3816
     59 H26        -8.8139   -6.1914    0.9988 H         1 <0>         0.3879
     60 H27        -8.2595   -9.0294   -0.7423 H         1 <0>         0.3950
     61 H28        -4.8761   -8.5507   -1.0874 H         1 <0>         0.3884
@<TRIPOS>BOND
     1    1    2 1
     2    1   39 1
     3    1   40 1
     4    1   41 1
     5    2    3 1
     6    3    8 ar
     7    3    4 ar
     8    4    5 ar
     9    4   42 1
    10    5    6 ar
    11    5   43 1
    12    6    7 ar
    13    6   44 1
    14    7    8 ar
    15    7   45 1
    16    8    9 1
    17    9   10 1
    18   10   11 1
    19   10   46 1
    20   10   47 1
    21   11   12 1
    22   11   48 1
    23   11   49 1
    24   12   13 1
    25   12   50 1
    26   12   51 1
    27   13   21 1
    28   13   14 1
    29   14   19 ar
    30   14   15 ar
    31   15   16 ar
    32   15   52 1
    33   16   17 ar
    34   16   53 1
    35   17   18 ar
    36   17   54 1
    37   18   19 ar
    38   18   55 1
    39   19   20 1
    40   20   21 2
    41   21   22 1
    42   22   23 1
    43   23   24 1
    44   23   33 1
    45   23   25 1
    46   25   26 1
    47   25   27 1
    48   25   38 1
    49   27   28 1
    50   27   29 1
    51   27   37 1
    52   29   30 1
    53   29   31 1
    54   29   36 1
    55   31   32 1
    56   31   33 1
    57   31   34 1
    58   34   35 1
    59   34   56 1
    60   34   57 1
    61   35   58 1
    62   36   59 1
    63   37   60 1
    64   38   61 1
@<TRIPOS>MOLECULE
ZINC15305319
   63    66     0     0     0
SMALL
USER_CHARGES

@<TRIPOS>ATOM
      1 C1         -1.4233    1.4521   -0.6965 C.3       1 <0>        -0.1738
      2 C2         -1.3776   -0.0517   -0.7833 C.2       1 <0>         0.5112
      3 O1         -1.3226   -0.5953   -1.8663 O.2       1 <0>        -0.5200
      4 N1         -1.3978   -0.7927    0.3423 N.am      1 <0>        -0.6772
      5 C3         -1.4552   -2.1894    0.2602 C.ar      1 <0>         0.1615
      6 C4         -2.1767   -2.9114    1.2019 C.ar      1 <0>        -0.1323
      7 C5         -2.2335   -4.2882    1.1205 C.ar      1 <0>        -0.0747
      8 C6         -1.5693   -4.9512    0.0973 C.ar      1 <0>         0.0847
      9 C7         -0.8480   -4.2296   -0.8442 C.ar      1 <0>        -0.0739
     10 C8         -0.7953   -2.8524   -0.7662 C.ar      1 <0>        -0.1086
     11 N2         -1.6268   -6.3507    0.0151 N.am      1 <0>        -0.5182
     12 C9         -0.5532   -7.1305    0.1876 C.2       1 <0>         0.5421
     13 O2          0.5676   -6.7363    0.4287 O.2       1 <0>        -0.4481
     14 C10        -0.9560   -8.5801    0.0355 C.3       1 <0>        -0.1421
     15 H1         -0.7276   -9.1749    0.9199 H         1 <0>         0.1665
     16 C11        -0.3169   -9.1526   -1.2468 C.3       1 <0>         0.1000
     17 H2          0.0428   -8.3454   -1.8848 H         1 <0>         0.1569
     18 N3         -1.4160   -9.8921   -1.9182 N.4       1 <0>        -0.4893
     19 C12        -2.6093   -9.0304   -1.7203 C.3       1 <0>         0.0031
     20 C13        -2.4777   -8.5002   -0.2606 C.3       1 <0>        -0.1062
     21 H3         -3.0783   -9.0607    0.4558 H         1 <0>         0.1672
     22 C14        -2.7608   -7.0149   -0.2367 C.2       1 <0>         0.5327
     23 O3         -3.8455   -6.5053   -0.4198 O.2       1 <0>        -0.4106
     24 C15        -2.6009   -7.8708   -2.7183 C.3       1 <0>        -0.1140
     25 C16        -2.6540   -8.4243   -4.1437 C.3       1 <0>        -0.0993
     26 S1         -2.6441   -7.0495   -5.3270 S.3       1 <0>        -0.2354
     27 C17        -2.7099   -7.8639   -6.9466 C.3       1 <0>        -0.1238
     28 C18        -3.8718   -9.8405   -1.8654 C.2       1 <0>         0.5062
     29 O4         -3.8068  -11.0270   -2.1382 O.co2     1 <0>        -0.6616
     30 O5         -4.9582   -9.3093   -1.7100 O.co2     1 <0>        -0.6041
     31 C19         0.8121  -10.0879   -0.8982 C.ar      1 <0>        -0.1205
     32 C20         0.5641  -11.4374   -0.7267 C.ar      1 <0>        -0.1441
     33 C21         1.5973  -12.2979   -0.4069 C.ar      1 <0>        -0.0697
     34 C22         2.8836  -11.8130   -0.2566 C.ar      1 <0>        -0.1747
     35 C23         3.1389  -10.4622   -0.4270 C.ar      1 <0>         0.1111
     36 C24         2.0994   -9.5966   -0.7551 C.ar      1 <0>         0.1195
     37 O6          2.3460   -8.2705   -0.9290 O.3       1 <0>        -0.4813
     38 O7          4.4033   -9.9838   -0.2795 O.3       1 <0>        -0.3016
     39 C25         5.4208  -10.9309    0.0518 C.3       1 <0>         0.0221
     40 H4         -1.3985    1.8749   -1.7008 H         1 <0>         0.0988
     41 H5         -2.3413    1.7593   -0.1955 H         1 <0>         0.0938
     42 H6         -0.5632    1.8096   -0.1304 H         1 <0>         0.0933
     43 H7         -1.3727   -0.3584    1.2093 H         1 <0>         0.4151
     44 H8         -2.6930   -2.3957    1.9981 H         1 <0>         0.1380
     45 H9         -2.7943   -4.8498    1.8531 H         1 <0>         0.1331
     46 H10        -0.3314   -4.7456   -1.6401 H         1 <0>         0.1307
     47 H11        -0.2378   -2.2909   -1.5012 H         1 <0>         0.1493
     48 H12        -1.2187  -10.0013   -2.9017 H         1 <0>         0.4290
     49 H13        -3.4683   -7.2344   -2.5432 H         1 <0>         0.1343
     50 H14        -1.6897   -7.2868   -2.5891 H         1 <0>         0.0777
     51 H15        -1.7867   -9.0608   -4.3189 H         1 <0>         0.0697
     52 H16        -3.5653   -9.0084   -4.2730 H         1 <0>         0.1079
     53 H17        -2.7080   -7.1092   -7.7331 H         1 <0>         0.1071
     54 H18        -1.8413   -8.5121   -7.0629 H         1 <0>         0.0775
     55 H19        -3.6199   -8.4597   -7.0170 H         1 <0>         0.0821
     56 H20        -0.4393  -11.8199   -0.8425 H         1 <0>         0.1316
     57 H21         1.3996  -13.3513   -0.2738 H         1 <0>         0.1426
     58 H22         3.6891  -12.4874   -0.0060 H         1 <0>         0.1427
     59 H23         2.3598   -7.7620   -0.1066 H         1 <0>         0.4032
     60 H24         6.3791  -10.4188    0.1397 H         1 <0>         0.1076
     61 H25         5.1765  -11.4099    0.9999 H         1 <0>         0.0601
     62 H26         5.4830  -11.6863   -0.7316 H         1 <0>         0.0603
     63 H27        -1.5540  -10.7916   -1.4824 H         1 <0>         0.4349
@<TRIPOS>BOND
     1    1    2 1
     2    1   40 1
     3    1   41 1
     4    1   42 1
     5    2    3 2
     6    2    4 am
     7    4    5 1
     8    4   43 1
     9    5   10 ar
    10    5    6 ar
    11    6    7 ar
    12    6   44 1
    13    7    8 ar
    14    7   45 1
    15    8    9 ar
    16    8   11 1
    17    9   10 ar
    18    9   46 1
    19   10   47 1
    20   11   22 am
    21   11   12 am
    22   12   13 2
    23   12   14 1
    24   14   15 1
    25   14   20 1
    26   14   16 1
    27   16   17 1
    28   16   18 1
    29   16   31 1
    30   18   19 1
    31   18   48 1
    32   18   63 1
    33   19   20 1
    34   19   24 1
    35   19   28 1
    36   20   21 1
    37   20   22 1
    38   22   23 2
    39   24   25 1
    40   24   49 1
    41   24   50 1
    42   25   26 1
    43   25   51 1
    44   25   52 1
    45   26   27 1
    46   27   53 1
    47   27   54 1
    48   27   55 1
    49   28   29 2
    50   28   30 1
    51   31   36 ar
    52   31   32 ar
    53   32   33 ar
    54   32   56 1
    55   33   34 ar
    56   33   57 1
    57   34   35 ar
    58   34   58 1
    59   35   36 ar
    60   35   38 1
    61   36   37 1
    62   37   59 1
    63   38   39 1
    64   39   60 1
    65   39   61 1
    66   39   62 1
@<TRIPOS>MOLECULE
ZINC13135112
   44    45     0     0     0
SMALL
USER_CHARGES
[2-[(3,5-dicarbamoylphenyl)amino]-2-oxo-ethyl] 2-(2,4,5-trichlorophenoxy)acetate
@<TRIPOS>ATOM
      1 C1         -2.4405   -0.5275    0.0280 C.ar      1 <0>        -0.0664
      2 C2         -3.5130   -1.0055   -0.7220 C.ar      1 <0>        -0.1226
      3 C3         -4.7282   -0.3189   -0.7156 C.ar      1 <0>        -0.0564
      4 C4         -4.8688    0.8382    0.0364 C.ar      1 <0>         0.1379
      5 C5         -3.8047    1.3139    0.7884 C.ar      1 <0>        -0.0357
      6 C6         -2.5851    0.6350    0.7823 C.ar      1 <0>        -0.1221
      7 C7         -1.4496    1.1457    1.5802 C.2       1 <0>         0.5643
      8 O1         -1.5766    2.1600    2.2379 O.2       1 <0>        -0.5259
      9 N1         -0.2741    0.4866    1.5781 N.am      1 <0>        -0.8490
     10 N2         -6.0889    1.5244    0.0407 N.am      1 <0>        -0.6686
     11 C8         -6.1062    2.8676    0.1498 C.2       1 <0>         0.5158
     12 O2         -5.0650    3.4897    0.1480 O.2       1 <0>        -0.4852
     13 C9         -7.4193    3.5966    0.2740 C.3       1 <0>         0.0535
     14 O3         -7.1727    5.0238    0.3767 O.3       1 <0>        -0.3268
     15 C10        -8.2463    5.8208    0.4945 C.2       1 <0>         0.4699
     16 O4         -9.3554    5.3418    0.5112 O.2       1 <0>        -0.4727
     17 C11        -8.0683    7.3131    0.6059 C.3       1 <0>         0.0643
     18 O5         -9.3483    7.9383    0.7201 O.3       1 <0>        -0.2742
     19 C12        -9.3657    9.2932    0.8302 C.ar      1 <0>         0.1579
     20 C13        -8.1757   10.0053    0.8282 C.ar      1 <0>        -0.1814
     21 C14        -8.1955   11.3832    0.9398 C.ar      1 <0>         0.0129
     22 C15        -9.4027   12.0523    1.0534 C.ar      1 <0>        -0.0562
     23 C16       -10.5906   11.3436    1.0556 C.ar      1 <0>        -0.0499
     24 C17       -10.5750    9.9659    0.9389 C.ar      1 <0>        -0.0522
     25 Cl1       -12.0665    9.0776    0.9350 Cl        1 <0>        -0.0253
     26 Cl2        -9.4252   13.7824    1.1940 Cl        1 <0>        -0.0305
     27 Cl3        -6.7062   12.2752    0.9368 Cl        1 <0>        -0.0274
     28 C18        -3.3641   -2.2392   -1.5236 C.2       1 <0>         0.5665
     29 O6         -4.3002   -2.6557   -2.1777 O.2       1 <0>        -0.5318
     30 N3         -2.1905   -2.9019   -1.5290 N.am      1 <0>        -0.8481
     31 H1         -1.4990   -1.0567    0.0245 H         1 <0>         0.1328
     32 H2         -5.5600   -0.6891   -1.2964 H         1 <0>         0.1500
     33 H3         -3.9187    2.2128    1.3761 H         1 <0>         0.1568
     34 H4         -0.1728   -0.3228    1.0532 H         1 <0>         0.3994
     35 H5          0.4720    0.8238    2.0983 H         1 <0>         0.4097
     36 H6         -6.9219    1.0331   -0.0349 H         1 <0>         0.4197
     37 H7         -8.0309    3.3960   -0.6056 H         1 <0>         0.1127
     38 H8         -7.9426    3.2532    1.1664 H         1 <0>         0.1140
     39 H9         -7.4716    7.5430    1.4886 H         1 <0>         0.1182
     40 H10        -7.5600    7.6858   -0.2834 H         1 <0>         0.1179
     41 H11        -7.2341    9.4839    0.7393 H         1 <0>         0.1600
     42 H12       -11.5311   11.8670    1.1443 H         1 <0>         0.1634
     43 H13        -1.4435   -2.5696   -1.0070 H         1 <0>         0.4003
     44 H14        -2.0929   -3.7112   -2.0548 H         1 <0>         0.4101
@<TRIPOS>BOND
     1    1    6 ar
     2    1    2 ar
     3    1   31 1
     4    2    3 ar
     5    2   28 1
     6    3    4 ar
     7    3   32 1
     8    4    5 ar
     9    4   10 1
    10    5    6 ar
    11    5   33 1
    12    6    7 1
    13    7    8 2
    14    7    9 am
    15    9   34 1
    16    9   35 1
    17   10   11 am
    18   10   36 1
    19   11   12 2
    20   11   13 1
    21   13   14 1
    22   13   37 1
    23   13   38 1
    24   14   15 1
    25   15   16 2
    26   15   17 1
    27   17   18 1
    28   17   39 1
    29   17   40 1
    30   18   19 1
    31   19   24 ar
    32   19   20 ar
    33   20   21 ar
    34   20   41 1
    35   21   22 ar
    36   21   27 1
    37   22   23 ar
    38   22   26 1
    39   23   24 ar
    40   23   42 1
    41   24   25 1
    42   28   29 2
    43   28   30 am
    44   30   43 1
    45   30   44 1
@<TRIPOS>MOLECULE
ZINC20915501
   57    60     0     0     0
SMALL
USER_CHARGES
methyl 2-[3-[[4-amino-5-[(N'E)-N'-[(3-hydroxyphenyl)methylene]hydrazino]-1,2,4-triazol-3-yl]sulfanyl]propanoylamino]-5,6-dihydro-4H-cyclopenta[d]thiophene-3-carboxylate
@<TRIPOS>ATOM
      1 C1        -11.4270   17.1218    1.2978 C.3       1 <0>         0.0275
      2 O1        -11.6632   15.6907    1.3641 O.3       1 <0>        -0.3516
      3 C2        -11.7865   15.0355    0.1915 C.2       1 <0>         0.5307
      4 O2        -11.6988   15.6446   -0.8577 O.2       1 <0>        -0.4942
      5 C3        -12.0260   13.5908    0.1817 C.2       1 <0>        -0.2001
      6 C4        -13.3841   13.0471    0.1871 C.2       1 <0>        -0.0934
      7 C5        -13.4618   11.7046    0.1823 C.2       1 <0>        -0.2352
      8 S1        -11.7735   11.1534    0.1650 S.3       1 <0>         0.2761
      9 C6        -10.9747   12.6887    0.1627 C.2       1 <0>         0.0843
     10 N1         -9.6139   12.9518    0.1508 N.am      1 <0>        -0.6330
     11 C7         -8.7308   11.9338    0.1386 C.2       1 <0>         0.5198
     12 O3         -9.1268   10.7875    0.1380 O.2       1 <0>        -0.4903
     13 C8         -7.2512   12.2198    0.1257 C.3       1 <0>        -0.1219
     14 C9         -6.4768   10.9004    0.1133 C.3       1 <0>        -0.0898
     15 S2         -4.6958   11.2447    0.0978 S.3       1 <0>        -0.0039
     16 C10        -3.9529    9.6470    0.0846 C.2       1 <0>         0.1882
     17 N2         -4.5901    8.5004    0.0855 N.2       1 <0>        -0.2935
     18 N3         -3.6357    7.4749    0.0668 N.2       1 <0>        -0.3111
     19 C11        -2.4470    8.0279    0.0634 C.2       1 <0>         0.4872
     20 N4         -2.6124    9.3851    0.0710 N.pl3     1 <0>        -0.2647
     21 N5         -1.6125   10.3158    0.0661 N.3       1 <0>        -0.7776
     22 N6         -1.2342    7.3542    0.0487 N.pl3     1 <0>        -0.5611
     23 N7         -1.2110    5.9534    0.0423 N.2       1 <0>        -0.1857
     24 C12        -0.0758    5.3229    0.0285 C.2       1 <0>         0.0913
     25 C13        -0.0514    3.8487    0.0218 C.ar      1 <0>        -0.0110
     26 C14        -1.2483    3.1272    0.0299 C.ar      1 <0>        -0.1220
     27 C15        -1.2212    1.7482    0.0173 C.ar      1 <0>        -0.0804
     28 C16        -0.0126    1.0758    0.0080 C.ar      1 <0>        -0.1469
     29 C17         1.1819    1.7835    0.0004 C.ar      1 <0>         0.1525
     30 C18         1.1675    3.1680    0.0070 C.ar      1 <0>        -0.1893
     31 O4          2.3661    1.1169   -0.0141 O.3       1 <0>        -0.5095
     32 C19       -14.8871   11.2219    0.1911 C.3       1 <0>        -0.0367
     33 C20       -15.7173   12.4530   -0.2348 C.3       1 <0>        -0.1116
     34 C21       -14.8040   13.6148    0.2042 C.3       1 <0>        -0.0583
     35 H1        -11.3469   17.5278    2.3170 H         1 <0>         0.1057
     36 H2        -12.2636   17.6076    0.7743 H         1 <0>         0.0659
     37 H3        -10.4916   17.3141    0.7519 H         1 <0>         0.0648
     38 H4         -9.2547   13.9915    0.1513 H         1 <0>         0.4464
     39 H5         -6.9981   12.8020   -0.7727 H         1 <0>         0.1172
     40 H6         -6.9811   12.7951    1.0235 H         1 <0>         0.1173
     41 H7         -6.7299   10.3182    1.0116 H         1 <0>         0.1119
     42 H8         -6.7469   10.3251   -0.7845 H         1 <0>         0.1117
     43 H9         -0.5609    9.9932    0.0549 H         1 <0>         0.4366
     44 H10        -1.8589   11.3878    0.0734 H         1 <0>         0.4481
     45 H11        -0.2909    7.9199    0.0421 H         1 <0>         0.4091
     46 H12         0.8675    5.8887    0.0218 H         1 <0>         0.1243
     47 H13        -2.1938    3.6490    0.0414 H         1 <0>         0.1374
     48 H14        -2.1467    1.1916    0.0191 H         1 <0>         0.1342
     49 H15         0.0021   -0.0041    0.0020 H         1 <0>         0.1306
     50 H16         2.0960    3.7195    0.0011 H         1 <0>         0.1309
     51 H17         3.3127    1.6773   -0.0201 H         1 <0>         0.4336
     52 H18       -14.9964   10.3887   -0.5188 H         1 <0>         0.0805
     53 H19       -15.1520   10.8792    1.2023 H         1 <0>         0.0862
     54 H20       -15.8873   12.4226   -1.3212 H         1 <0>         0.0788
     55 H21       -16.6849   12.4415    0.2882 H         1 <0>         0.0861
     56 H22       -15.0498   13.9572    1.2203 H         1 <0>         0.0842
     57 H23       -14.8685   14.4624   -0.4940 H         1 <0>         0.0734
@<TRIPOS>BOND
     1    1    2 1
     2    1   35 1
     3    1   36 1
     4    1   37 1
     5    2    3 1
     6    3    4 2
     7    3    5 1
     8    5    9 2
     9    5    6 1
    10    6   34 1
    11    6    7 2
    12    7    8 1
    13    7   32 1
    14    8    9 1
    15    9   10 1
    16   10   11 am
    17   10   38 1
    18   11   12 2
    19   11   13 1
    20   13   14 1
    21   13   39 1
    22   13   40 1
    23   14   15 1
    24   14   41 1
    25   14   42 1
    26   15   16 1
    27   16   20 1
    28   16   17 2
    29   17   18 1
    30   18   19 2
    31   19   20 1
    32   19   22 1
    33   20   21 1
    34   21   43 1
    35   21   44 1
    36   22   23 1
    37   22   45 1
    38   23   24 2
    39   24   25 1
    40   24   46 1
    41   25   30 ar
    42   25   26 ar
    43   26   27 ar
    44   26   47 1
    45   27   28 ar
    46   27   48 1
    47   28   29 ar
    48   28   49 1
    49   29   30 ar
    50   29   31 1
    51   30   50 1
    52   31   51 1
    53   32   33 1
    54   32   52 1
    55   32   53 1
    56   33   34 1
    57   33   54 1
    58   33   55 1
    59   34   56 1
    60   34   57 1
@<TRIPOS>MOLECULE
ZINC27645519
   75    75     0     0     0
SMALL
USER_CHARGES

@<TRIPOS>ATOM
      1 C1         -0.0187    1.5258    0.0104 C.3       1 <0>        -0.1530
      2 C2          0.0021   -0.0041    0.0020 C.3       1 <0>        -0.1256
      3 C3         -1.4333   -0.5336    0.0129 C.3       1 <0>        -0.1198
      4 C4         -1.4126   -2.0635    0.0045 C.3       1 <0>        -0.1100
      5 C5         -2.8479   -2.5931    0.0153 C.3       1 <0>        -0.1117
      6 C6         -2.8275   -4.0999    0.0070 C.2       1 <0>         0.4579
      7 O1         -1.7731   -4.6897   -0.0062 O.2       1 <0>        -0.5082
      8 O2         -3.9807   -4.7868    0.0144 O.3       1 <0>        -0.3390
      9 C7         -3.8866   -6.2127    0.0058 C.3       1 <0>         0.0459
     10 C8         -5.2923   -6.8167    0.0160 C.3       1 <0>         0.0896
     11 H1         -5.8507   -6.4230    0.8653 H         1 <0>         0.1024
     12 C9         -5.1925   -8.3389    0.1326 C.3       1 <0>         0.1444
     13 O3         -6.5032   -8.8939    0.2592 O.3       1 <0>        -0.7588
     14 P1         -6.7762  -10.4740    0.4038 P.3       1 <0>         2.2267
     15 O4         -6.1159  -11.2208   -0.7766 O.2       1 <0>        -1.0921
     16 O5         -6.1759  -10.9807    1.7342 O.3       1 <0>        -1.0896
     17 O6         -8.3627  -10.7478    0.3920 O.3       1 <0>        -0.7467
     18 C10        -8.9259  -12.0611    0.3992 C.3       1 <0>         0.1971
     19 C11        -9.8010  -12.2340    1.6423 C.3       1 <0>         0.0588
     20 H2        -10.6022  -11.4951    1.6282 H         1 <0>         0.0617
     21 C12       -10.4040  -13.6401    1.6499 C.3       1 <0>         0.0858
     22 H3        -11.0274  -13.7633    2.5355 H         1 <0>         0.0564
     23 C13       -11.2566  -13.8363    0.3947 C.3       1 <0>        -0.0802
     24 C14       -10.3815  -13.6634   -0.8484 C.3       1 <0>         0.0860
     25 H4        -10.9888  -13.8031   -1.7426 H         1 <0>         0.0562
     26 C15        -9.7784  -12.2573   -0.8560 C.3       1 <0>         0.0599
     27 H5        -10.5797  -11.5184   -0.8701 H         1 <0>         0.0615
     28 O7         -8.9611  -12.0958   -2.0170 O.3       1 <0>        -0.5295
     29 O8         -9.3310  -14.6321   -0.8299 O.3       1 <0>        -0.5297
     30 C16       -11.8596  -15.2424    0.4024 C.3       1 <0>        -0.1356
     31 O9         -9.3536  -14.6088    1.6684 O.3       1 <0>        -0.5299
     32 O10        -9.0047  -12.0508    2.8146 O.3       1 <0>        -0.5285
     33 O11        -5.9663   -6.4750   -1.1969 O.3       1 <0>        -0.3334
     34 C17        -6.6767   -5.3361   -1.1992 C.2       1 <0>         0.4588
     35 O12        -6.7247   -4.6520   -0.2045 O.2       1 <0>        -0.4977
     36 C18        -7.4145   -4.9108   -2.4426 C.3       1 <0>        -0.1145
     37 C19        -8.1380   -3.5887   -2.1792 C.3       1 <0>        -0.1076
     38 C20        -8.8870   -3.1569   -3.4415 C.3       1 <0>        -0.1206
     39 C21        -9.6106   -1.8348   -3.1781 C.3       1 <0>        -0.1248
     40 C22       -10.3596   -1.4030   -4.4404 C.3       1 <0>        -0.1529
     41 H6          1.0039    1.9031    0.0027 H         1 <0>         0.0529
     42 H7         -0.5459    1.8868   -0.8726 H         1 <0>         0.0533
     43 H8         -0.5289    1.8773    0.9072 H         1 <0>         0.0535
     44 H9          0.5123   -0.3556   -0.8948 H         1 <0>         0.0622
     45 H10         0.5293   -0.3651    0.8851 H         1 <0>         0.0624
     46 H11        -1.9435   -0.1821    0.9097 H         1 <0>         0.0645
     47 H12        -1.9605   -0.1726   -0.8702 H         1 <0>         0.0640
     48 H13        -0.9024   -2.4150   -0.8923 H         1 <0>         0.0717
     49 H14        -0.8854   -2.4246    0.8875 H         1 <0>         0.0723
     50 H15        -3.3581   -2.2415    0.9121 H         1 <0>         0.1059
     51 H16        -3.3751   -2.2320   -0.8677 H         1 <0>         0.1037
     52 H17        -3.3584   -6.5366   -0.8910 H         1 <0>         0.0842
     53 H18        -3.3415   -6.5461    0.8888 H         1 <0>         0.0909
     54 H19        -4.7123   -8.7410   -0.7596 H         1 <0>         0.0711
     55 H20        -4.6017   -8.5981    1.0112 H         1 <0>         0.0772
     56 H21        -8.1246  -12.8000    0.4133 H         1 <0>         0.0879
     57 H22       -12.0578  -13.0974    0.3806 H         1 <0>         0.0913
     58 H23        -9.4369  -12.2068   -2.8515 H         1 <0>         0.3660
     59 H24        -8.7356  -14.5811   -1.5901 H         1 <0>         0.3768
     60 H25       -12.4830  -15.3656    1.2879 H         1 <0>         0.0502
     61 H26       -12.4670  -15.3821   -0.4919 H         1 <0>         0.0502
     62 H27       -11.0583  -15.9813    0.4165 H         1 <0>         0.0765
     63 H28        -8.7719  -14.5436    2.4382 H         1 <0>         0.3765
     64 H29        -9.4955  -12.1463    3.6423 H         1 <0>         0.3663
     65 H30        -6.7047   -4.7801   -3.2594 H         1 <0>         0.1020
     66 H31        -8.1424   -5.6758   -2.7127 H         1 <0>         0.1047
     67 H32        -8.8478   -3.7194   -1.3623 H         1 <0>         0.0716
     68 H33        -7.4101   -2.8237   -1.9090 H         1 <0>         0.0711
     69 H34        -8.1772   -3.0262   -4.2583 H         1 <0>         0.0635
     70 H35        -9.6150   -3.9219   -3.7116 H         1 <0>         0.0644
     71 H36       -10.3204   -1.9655   -2.3612 H         1 <0>         0.0620
     72 H37        -8.8826   -1.0698   -2.9079 H         1 <0>         0.0614
     73 H38       -10.8750   -0.4611   -4.2527 H         1 <0>         0.0520
     74 H39        -9.6498   -1.2723   -5.2572 H         1 <0>         0.0530
     75 H40       -11.0875   -2.1680   -4.7105 H         1 <0>         0.0535
@<TRIPOS>BOND
     1    1    2 1
     2    1   41 1
     3    1   42 1
     4    1   43 1
     5    2    3 1
     6    2   44 1
     7    2   45 1
     8    3    4 1
     9    3   46 1
    10    3   47 1
    11    4    5 1
    12    4   48 1
    13    4   49 1
    14    5    6 1
    15    5   50 1
    16    5   51 1
    17    6    7 2
    18    6    8 1
    19    8    9 1
    20    9   10 1
    21    9   52 1
    22    9   53 1
    23   10   11 1
    24   10   12 1
    25   10   33 1
    26   12   13 1
    27   12   54 1
    28   12   55 1
    29   13   14 1
    30   14   15 2
    31   14   16 1
    32   14   17 1
    33   17   18 1
    34   18   26 1
    35   18   19 1
    36   18   56 1
    37   19   20 1
    38   19   21 1
    39   19   32 1
    40   21   22 1
    41   21   23 1
    42   21   31 1
    43   23   24 1
    44   23   30 1
    45   23   57 1
    46   24   25 1
    47   24   26 1
    48   24   29 1
    49   26   27 1
    50   26   28 1
    51   28   58 1
    52   29   59 1
    53   30   60 1
    54   30   61 1
    55   30   62 1
    56   31   63 1
    57   32   64 1
    58   33   34 1
    59   34   35 2
    60   34   36 1
    61   36   37 1
    62   36   65 1
    63   36   66 1
    64   37   38 1
    65   37   67 1
    66   37   68 1
    67   38   39 1
    68   38   69 1
    69   38   70 1
    70   39   40 1
    71   39   71 1
    72   39   72 1
    73   40   73 1
    74   40   74 1
    75   40   75 1
@<TRIPOS>MOLECULE
ZINC59039795
   57    59     0     0     0
SMALL
USER_CHARGES

@<TRIPOS>ATOM
      1 C1         -0.0172    1.5258   -0.0165 C.3       1 <0>        -0.1533
      2 C2          0.0035   -0.0040   -0.0228 C.3       1 <0>         0.0512
      3 O1         -1.3371   -0.4985   -0.0027 O.3       1 <0>        -0.3046
      4 C3         -1.4971   -1.8490   -0.0053 C.ar      1 <0>         0.1024
      5 C4         -0.3895   -2.6762   -0.0212 C.ar      1 <0>        -0.1684
      6 C5         -0.5576   -4.0632   -0.0238 C.ar      1 <0>        -0.0242
      7 C6         -1.8444   -4.6074   -0.0105 C.ar      1 <0>        -0.0956
      8 C7         -2.9444   -3.7757    0.0052 C.ar      1 <0>        -0.1102
      9 C8         -2.7769   -2.3987    0.0136 C.ar      1 <0>         0.0939
     10 O2         -3.8648   -1.5835    0.0348 O.3       1 <0>        -0.4856
     11 C9          0.6198   -4.9503   -0.0412 C.2       1 <0>         0.1055
     12 N1          0.4617   -6.2389   -0.0437 N.2       1 <0>        -0.1941
     13 N2          1.5806   -7.0819   -0.0602 N.pl3     1 <0>        -0.5488
     14 C10         1.4122   -8.4542   -0.0628 C.2       1 <0>         0.5614
     15 N3          0.2608   -9.0929   -0.0567 N.2       1 <0>        -0.5171
     16 C11         0.4783  -10.4123   -0.0618 C.2       1 <0>         0.2161
     17 N4          1.7717  -10.6311   -0.0712 N.2       1 <0>        -0.3228
     18 N5          2.3994   -9.3751   -0.0779 N.pl3     1 <0>        -0.5030
     19 S1         -0.7702  -11.6556   -0.0567 S.3       1 <0>         0.1188
     20 C12         0.1608  -13.2125   -0.0674 C.3       1 <0>        -0.1639
     21 C13        -0.8008  -14.3728   -0.0640 C.2       1 <0>         0.5373
     22 O3         -1.9965  -14.1696   -0.0553 O.2       1 <0>        -0.4980
     23 N6         -0.3321  -15.6365   -0.0707 N.am      1 <0>        -0.6641
     24 C14        -1.2216  -16.7141    0.0304 C.ar      1 <0>         0.1428
     25 C15        -2.4732  -16.6393   -0.5660 C.ar      1 <0>        -0.1120
     26 C16        -3.3519  -17.7013   -0.4673 C.ar      1 <0>        -0.1539
     27 C17        -2.9858  -18.8430    0.2271 C.ar      1 <0>         0.0905
     28 C18        -1.7321  -18.9209    0.8260 C.ar      1 <0>         0.1173
     29 C19        -0.8495  -17.8586    0.7221 C.ar      1 <0>        -0.1951
     30 O4         -1.3719  -20.0411    1.5078 O.3       1 <0>        -0.3028
     31 C20        -0.0700  -20.0514    2.0969 C.3       1 <0>         0.0250
     32 O5         -3.8521  -19.8877    0.3238 O.3       1 <0>        -0.3064
     33 C21        -5.1219  -19.7387   -0.3147 C.3       1 <0>         0.0250
     34 H1          1.0054    1.9031   -0.0319 H         1 <0>         0.0793
     35 H2         -0.5505    1.8857   -0.8964 H         1 <0>         0.0671
     36 H3         -0.5211    1.8787    0.8833 H         1 <0>         0.0679
     37 H4          0.5074   -0.3568   -0.9227 H         1 <0>         0.0625
     38 H5          0.5368   -0.3638    0.8570 H         1 <0>         0.0629
     39 H6          0.6033   -2.2512   -0.0318 H         1 <0>         0.1370
     40 H7         -1.9776   -5.6792   -0.0129 H         1 <0>         0.1451
     41 H8         -3.9386   -4.1976    0.0155 H         1 <0>         0.1430
     42 H9         -4.1941   -1.3442   -0.8423 H         1 <0>         0.3902
     43 H10         1.6138   -4.5282   -0.0518 H         1 <0>         0.1234
     44 H11         2.4734   -6.7028   -0.0697 H         1 <0>         0.4009
     45 H12         0.7822  -13.2581   -0.9617 H         1 <0>         0.1262
     46 H13         0.7943  -13.2630    0.8182 H         1 <0>         0.1262
     47 H14         0.6211  -15.7998   -0.1455 H         1 <0>         0.4137
     48 H15        -2.7605  -15.7501   -1.1074 H         1 <0>         0.1460
     49 H16        -4.3251  -17.6411   -0.9317 H         1 <0>         0.1411
     50 H17         0.1256  -17.9190    1.1824 H         1 <0>         0.1394
     51 H18         0.0895  -21.0003    2.6091 H         1 <0>         0.1021
     52 H19         0.6823  -19.9281    1.3179 H         1 <0>         0.0550
     53 H20         0.0112  -19.2338    2.8132 H         1 <0>         0.0552
     54 H21        -5.6454  -18.8835    0.1127 H         1 <0>         0.0563
     55 H22        -4.9748  -19.5781   -1.3827 H         1 <0>         0.0556
     56 H23        -5.7138  -20.6410   -0.1610 H         1 <0>         0.1013
     57 H24         3.3540   -9.2029   -0.0889 H         1 <0>         0.4392
@<TRIPOS>BOND
     1    1    2 1
     2    1   34 1
     3    1   35 1
     4    1   36 1
     5    2    3 1
     6    2   37 1
     7    2   38 1
     8    3    4 1
     9    4    9 ar
    10    4    5 ar
    11    5    6 ar
    12    5   39 1
    13    6    7 ar
    14    6   11 1
    15    7    8 ar
    16    7   40 1
    17    8    9 ar
    18    8   41 1
    19    9   10 1
    20   10   42 1
    21   11   12 2
    22   11   43 1
    23   12   13 1
    24   13   14 1
    25   13   44 1
    26   14   18 1
    27   14   15 2
    28   15   16 1
    29   16   17 2
    30   16   19 1
    31   17   18 1
    32   18   57 1
    33   19   20 1
    34   20   21 1
    35   20   45 1
    36   20   46 1
    37   21   22 2
    38   21   23 am
    39   23   24 1
    40   23   47 1
    41   24   29 ar
    42   24   25 ar
    43   25   26 ar
    44   25   48 1
    45   26   27 ar
    46   26   49 1
    47   27   28 ar
    48   27   32 1
    49   28   29 ar
    50   28   30 1
    51   29   50 1
    52   30   31 1
    53   31   51 1
    54   31   52 1
    55   31   53 1
    56   32   33 1
    57   33   54 1
    58   33   55 1
    59   33   56 1
@<TRIPOS>MOLECULE
ZINC02668709
   52    54     0     0     0
SMALL
USER_CHARGES

@<TRIPOS>ATOM
      1 C1         -2.2057   -2.6233   -0.6611 C.3       1 <0>        -0.1531
      2 C2         -0.9660   -1.8111   -0.2811 C.3       1 <0>         0.0611
      3 O1         -0.3342   -2.4087    0.8528 O.3       1 <0>        -0.3487
      4 C3          0.7805   -1.8111    1.3176 C.2       1 <0>         0.5104
      5 O2          1.2044   -0.8100    0.7751 O.2       1 <0>        -0.5057
      6 C4          1.4858   -2.3721    2.4848 C.ar      1 <0>        -0.1428
      7 C5          1.0027   -3.5273    3.1068 C.ar      1 <0>        -0.0378
      8 C6          1.6639   -4.0484    4.1957 C.ar      1 <0>        -0.1349
      9 C7          2.8116   -3.4267    4.6780 C.ar      1 <0>         0.1818
     10 C8          3.2950   -2.2765    4.0617 C.ar      1 <0>        -0.1560
     11 C9          2.6425   -1.7534    2.9685 C.ar      1 <0>        -0.0312
     12 N1          3.4785   -3.9570    5.7814 N.am      1 <0>        -0.6688
     13 C10         3.5043   -5.2904    5.9763 C.2       1 <0>         0.5189
     14 O3          3.0310   -6.0342    5.1435 O.2       1 <0>        -0.5010
     15 C11         4.1212   -5.8570    7.2291 C.3       1 <0>        -0.1207
     16 C12         4.0209   -7.3834    7.2016 C.3       1 <0>        -0.0881
     17 H1          4.4562   -7.7887    6.2882 H         1 <0>         0.1710
     18 C13         4.6585   -7.9998    8.4365 C.2       1 <0>         0.5287
     19 O4          5.8378   -7.8686    8.6864 O.2       1 <0>        -0.4687
     20 N2          3.8465   -8.6875    9.2211 N.am      1 <0>        -0.6946
     21 C14         2.5043   -8.8412    8.9445 C.2       1 <0>         0.3914
     22 N3          1.6033   -9.4948    9.6398 N.2       1 <0>        -0.4639
     23 C15         1.9616  -10.1317   10.7979 C.ar      1 <0>         0.1551
     24 C16         3.1262  -10.9006   10.8440 C.ar      1 <0>        -0.1954
     25 C17         3.4815  -11.5391   12.0141 C.ar      1 <0>         0.0039
     26 C18         2.6865  -11.4193   13.1402 C.ar      1 <0>        -0.6889
     27 C19         1.5311  -10.6590   13.1015 C.ar      1 <0>         0.0054
     28 C20         1.1670  -10.0104   11.9397 C.ar      1 <0>        -0.1241
     29 S1          3.1472  -12.2393   14.6301 S.o2      1 <0>         2.7032
     30 O5          1.9546  -12.4152   15.3824 O.2       1 <0>        -0.9593
     31 O6          3.9782  -13.3288   14.2539 O.2       1 <0>        -0.9582
     32 N4          4.0996  -11.1928   15.4906 N.pl3     1 <0>        -1.2477
     33 S2          2.2801   -7.9416    7.4158 S.3       1 <0>         0.0277
     34 H2         -2.9020   -2.6372    0.1774 H         1 <0>         0.0675
     35 H3         -2.6877   -2.1674   -1.5260 H         1 <0>         0.0811
     36 H4         -1.9108   -3.6437   -0.9054 H         1 <0>         0.0676
     37 H5         -0.2697   -1.7972   -1.1197 H         1 <0>         0.0691
     38 H6         -1.2610   -0.7906   -0.0368 H         1 <0>         0.0691
     39 H7          0.1116   -4.0099    2.7335 H         1 <0>         0.1439
     40 H8          1.2913   -4.9407    4.6767 H         1 <0>         0.1451
     41 H9          4.1857   -1.7962    4.4391 H         1 <0>         0.1385
     42 H10         3.0210   -0.8634    2.4877 H         1 <0>         0.1438
     43 H11         3.9239   -3.3665    6.4089 H         1 <0>         0.4179
     44 H12         5.1693   -5.5626    7.2832 H         1 <0>         0.1327
     45 H13         3.5907   -5.4736    8.1008 H         1 <0>         0.1196
     46 H14         4.2085   -9.0997   10.0211 H         1 <0>         0.4157
     47 H15         3.7473  -10.9955    9.9656 H         1 <0>         0.1330
     48 H16         4.3820  -12.1341   12.0511 H         1 <0>         0.1489
     49 H17         0.9151  -10.5697   13.9841 H         1 <0>         0.1521
     50 H18         0.2673   -9.4137   11.9121 H         1 <0>         0.1459
     51 H19         4.1069  -11.2289   16.4599 H         1 <0>         0.4230
     52 H20         4.6501  -10.5437   15.0253 H         1 <0>         0.4168
@<TRIPOS>BOND
     1    1    2 1
     2    1   34 1
     3    1   35 1
     4    1   36 1
     5    2    3 1
     6    2   37 1
     7    2   38 1
     8    3    4 1
     9    4    5 2
    10    4    6 1
    11    6   11 ar
    12    6    7 ar
    13    7    8 ar
    14    7   39 1
    15    8    9 ar
    16    8   40 1
    17    9   10 ar
    18    9   12 1
    19   10   11 ar
    20   10   41 1
    21   11   42 1
    22   12   13 am
    23   12   43 1
    24   13   14 2
    25   13   15 1
    26   15   16 1
    27   15   44 1
    28   15   45 1
    29   16   17 1
    30   16   33 1
    31   16   18 1
    32   18   19 2
    33   18   20 am
    34   20   21 1
    35   20   46 1
    36   21   22 2
    37   21   33 1
    38   22   23 1
    39   23   28 ar
    40   23   24 ar
    41   24   25 ar
    42   24   47 1
    43   25   26 ar
    44   25   48 1
    45   26   27 ar
    46   26   29 1
    47   27   28 ar
    48   27   49 1
    49   28   50 1
    50   29   30 2
    51   29   31 2
    52   29   32 1
    53   32   51 1
    54   32   52 1
@<TRIPOS>MOLECULE
ZINC08870896
   57    59     0     0     0
SMALL
USER_CHARGES
1-[4-[2-(2,5-dioxabicyclo[4.4.0]deca-7,9,11-trien-8-yl)-1-hydroxy-vinyl]-3-hydroxy-phenoxy]-1-methoxy-pentane-2,3,4-triol
@<TRIPOS>ATOM
      1 C1        -16.0989   -1.8456   -1.1538 C.3       1 <0>        -0.1823
      2 C2        -14.7693   -2.5995   -1.2222 C.3       1 <0>         0.0774
      3 H1        -14.8448   -3.5223   -0.6471 H         1 <0>         0.1150
      4 C3        -13.6568   -1.7252   -0.6400 C.3       1 <0>         0.0474
      5 H2        -13.8413   -1.5617    0.4218 H         1 <0>         0.1209
      6 C4        -12.3092   -2.4267   -0.8213 C.3       1 <0>         0.1070
      7 H3        -12.1247   -2.5902   -1.8831 H         1 <0>         0.1260
      8 C5        -11.1968   -1.5524   -0.2391 C.3       1 <0>         0.2083
      9 H4        -11.2364   -0.5629   -0.6944 H         1 <0>         0.0875
     10 O1        -11.3742   -1.4341    1.1739 O.3       1 <0>        -0.3839
     11 C6        -10.5016   -0.4861    1.7919 C.3       1 <0>         0.0177
     12 O2         -9.9283   -2.1516   -0.5114 O.3       1 <0>        -0.3054
     13 C7         -8.8447   -1.3324   -0.5024 C.ar      1 <0>         0.1709
     14 C8         -9.0154    0.0399   -0.3630 C.ar      1 <0>        -0.2363
     15 C9         -7.9214    0.8773   -0.3525 C.ar      1 <0>        -0.0191
     16 C10        -6.6357    0.3467   -0.4828 C.ar      1 <0>        -0.2093
     17 C11        -6.4659   -1.0370   -0.6296 C.ar      1 <0>         0.2001
     18 C12        -7.5720   -1.8688   -0.6329 C.ar      1 <0>        -0.1844
     19 O3         -5.2197   -1.5602   -0.7625 O.3       1 <0>        -0.4774
     20 C13        -5.4617    1.2397   -0.4721 C.2       1 <0>         0.3763
     21 C14        -5.3052    2.1365    0.5239 C.3       1 <0>        -0.1237
     22 C15        -4.1983    3.1064    0.4742 C.ar      1 <0>        -0.0758
     23 C16        -3.9217    3.9127    1.5822 C.ar      1 <0>        -0.1069
     24 C17        -2.8872    4.8224    1.5299 C.ar      1 <0>        -0.1190
     25 C18        -2.1126    4.9375    0.3830 C.ar      1 <0>         0.0535
     26 C19        -2.3806    4.1368   -0.7230 C.ar      1 <0>         0.0463
     27 C20        -3.4202    3.2240   -0.6805 C.ar      1 <0>        -0.1067
     28 O4         -1.6298    4.2375   -1.8542 O.3       1 <0>        -0.3039
     29 C21        -0.8371    5.4211   -1.9972 C.3       1 <0>         0.0193
     30 C22        -0.1111    5.6757   -0.6693 C.3       1 <0>         0.0202
     31 O5         -1.0967    5.8442    0.3552 O.3       1 <0>        -0.3085
     32 O6         -4.5385    1.1592   -1.4643 O.2       1 <0>        -0.5071
     33 O7        -12.3315   -3.6840   -0.1426 O.3       1 <0>        -0.5324
     34 O8        -13.6345   -0.4679   -1.3187 O.3       1 <0>        -0.5486
     35 O9        -14.4674   -2.9103   -2.5840 O.3       1 <0>        -0.5527
     36 H5        -16.0234   -0.9228   -1.7290 H         1 <0>         0.0661
     37 H6        -16.8915   -2.4684   -1.5686 H         1 <0>         0.0672
     38 H7        -16.3292   -1.6085   -0.1151 H         1 <0>         0.0679
     39 H8         -9.4708   -0.8285    1.7018 H         1 <0>         0.0520
     40 H9        -10.6078    0.4804    1.2992 H         1 <0>         0.0547
     41 H10       -10.7608   -0.3870    2.8460 H         1 <0>         0.0939
     42 H11       -10.0090    0.4512   -0.2621 H         1 <0>         0.1433
     43 H12        -8.0577    1.9431   -0.2440 H         1 <0>         0.1459
     44 H13        -7.4446   -2.9357   -0.7414 H         1 <0>         0.1477
     45 H14        -4.8014   -1.7977    0.0763 H         1 <0>         0.3962
     46 H15        -5.9918    2.1429    1.3575 H         1 <0>         0.1562
     47 H16        -4.5194    3.8248    2.4774 H         1 <0>         0.1333
     48 H17        -2.6745    5.4443    2.3869 H         1 <0>         0.1360
     49 H18        -3.6296    2.6029   -1.5389 H         1 <0>         0.1865
     50 H19        -0.1071    5.2806   -2.7943 H         1 <0>         0.1230
     51 H20        -1.4809    6.2684   -2.2334 H         1 <0>         0.0778
     52 H21         0.5264    4.8247   -0.4298 H         1 <0>         0.0780
     53 H22         0.4945    6.5785   -0.7487 H         1 <0>         0.1230
     54 H23        -5.0020    1.3087    0.9959 H         1 <0>         0.1128
     55 H24       -12.4914   -3.6147    0.8086 H         1 <0>         0.3834
     56 H25       -13.4747   -0.5372   -2.2699 H         1 <0>         0.3750
     57 H26       -14.3854   -2.1346   -3.1555 H         1 <0>         0.3697
@<TRIPOS>BOND
     1    1    2 1
     2    1   36 1
     3    1   37 1
     4    1   38 1
     5    2    3 1
     6    2    4 1
     7    2   35 1
     8    4    5 1
     9    4    6 1
    10    4   34 1
    11    6    7 1
    12    6    8 1
    13    6   33 1
    14    8    9 1
    15    8   10 1
    16    8   12 1
    17   10   11 1
    18   11   39 1
    19   11   40 1
    20   11   41 1
    21   12   13 1
    22   13   18 ar
    23   13   14 ar
    24   14   15 ar
    25   14   42 1
    26   15   16 ar
    27   15   43 1
    28   16   17 ar
    29   16   20 1
    30   17   18 ar
    31   17   19 1
    32   18   44 1
    33   19   45 1
    34   20   21 1
    35   20   32 2
    36   21   22 1
    37   21   46 1
    38   21   54 1
    39   22   27 ar
    40   22   23 ar
    41   23   24 ar
    42   23   47 1
    43   24   25 ar
    44   24   48 1
    45   25   31 1
    46   25   26 ar
    47   26   27 ar
    48   26   28 1
    49   27   49 1
    50   28   29 1
    51   29   30 1
    52   29   50 1
    53   29   51 1
    54   30   31 1
    55   30   52 1
    56   30   53 1
    57   33   55 1
    58   34   56 1
    59   35   57 1
@<TRIPOS>MOLECULE
ZINC16511542
   52    53     0     0     0
SMALL
USER_CHARGES
N-[2-[N'-(4-methoxybenzoyl)hydrazino]-2-oxo-ethyl]-2-(p-tolylsulfonylamino)acetamide
@<TRIPOS>ATOM
      1 C1         -3.1312    3.0720    4.9056 C.3       1 <0>        -0.1271
      2 C2         -2.3533    2.6585    3.6830 C.ar      1 <0>        -0.0262
      3 C3         -2.5594    1.4122    3.1214 C.ar      1 <0>        -0.1422
      4 C4         -1.8458    1.0330    1.9999 C.ar      1 <0>        -0.0125
      5 C5         -0.9267    1.9002    1.4394 C.ar      1 <0>        -0.6868
      6 C6         -0.7172    3.1446    2.0038 C.ar      1 <0>        -0.0192
      7 C7         -1.4339    3.5256    3.1228 C.ar      1 <0>        -0.1423
      8 S1         -0.0172    1.4168    0.0098 S.o2      1 <0>         2.6999
      9 O1          0.0021   -0.0041    0.0020 O.2       1 <0>        -0.9494
     10 O2          1.1718    2.1948    0.0027 O.2       1 <0>        -0.9531
     11 N1         -0.8975    1.8855   -1.3122 N.pl3     1 <0>        -1.1066
     12 C8         -1.1248    3.3089   -1.5738 C.3       1 <0>         0.0994
     13 C9         -1.6142    3.4879   -2.9878 C.2       1 <0>         0.5201
     14 O3         -1.7590    2.5216   -3.7063 O.2       1 <0>        -0.5242
     15 N2         -1.8911    4.7218   -3.4540 N.am      1 <0>        -0.7163
     16 C10        -2.3670    4.8958   -4.8286 C.3       1 <0>         0.1112
     17 C11        -2.6008    6.3600   -5.0976 C.2       1 <0>         0.5121
     18 O4         -2.3906    7.1777   -4.2269 O.2       1 <0>        -0.5351
     19 N3         -3.0434    6.7609   -6.3059 N.am      1 <0>        -0.5134
     20 N4         -3.2608    8.1221   -6.5560 N.am      1 <0>        -0.5219
     21 C12        -3.7034    8.5229   -7.7643 C.2       1 <0>         0.5693
     22 O5         -3.9141    7.7032   -8.6372 O.2       1 <0>        -0.5328
     23 C13        -3.9324    9.9571   -8.0278 C.ar      1 <0>        -0.1746
     24 C14        -3.6963   10.9002   -7.0242 C.ar      1 <0>        -0.0406
     25 C15        -3.9056   12.2378   -7.2759 C.ar      1 <0>        -0.2162
     26 C16        -4.3621   12.6491   -8.5226 C.ar      1 <0>         0.1632
     27 C17        -4.6036   11.7136   -9.5218 C.ar      1 <0>        -0.1591
     28 C18        -4.3913   10.3747   -9.2799 C.ar      1 <0>        -0.0105
     29 O6         -4.5722   13.9678   -8.7651 O.3       1 <0>        -0.3102
     30 C19        -4.3040   14.8751   -7.6941 C.3       1 <0>         0.0226
     31 H1         -2.5831    2.7793    5.8012 H         1 <0>         0.0810
     32 H2         -3.2681    4.1533    4.9006 H         1 <0>         0.0738
     33 H3         -4.1051    2.5824    4.8994 H         1 <0>         0.0737
     34 H4         -3.2776    0.7348    3.5590 H         1 <0>         0.1340
     35 H5         -2.0065    0.0592    1.5613 H         1 <0>         0.1418
     36 H6          0.0040    3.8204    1.5685 H         1 <0>         0.1418
     37 H7         -1.2731    4.4993    3.5613 H         1 <0>         0.1341
     38 H8         -1.2626    1.2175   -1.9134 H         1 <0>         0.4300
     39 H9         -1.8729    3.6910   -0.8792 H         1 <0>         0.1015
     40 H10        -0.1917    3.8563   -1.4402 H         1 <0>         0.1161
     41 H11        -1.7754    5.4946   -2.8793 H         1 <0>         0.4166
     42 H12        -1.6189    4.5136   -5.5231 H         1 <0>         0.1118
     43 H13        -3.3000    4.3483   -4.9621 H         1 <0>         0.1113
     44 H14        -3.2115    6.1069   -7.0023 H         1 <0>         0.4378
     45 H15        -3.0927    8.7761   -5.8597 H         1 <0>         0.4320
     46 H16        -3.3462   10.5809   -6.0537 H         1 <0>         0.1297
     47 H17        -3.7188   12.9678   -6.5022 H         1 <0>         0.1387
     48 H18        -4.9586   12.0371  -10.4891 H         1 <0>         0.1432
     49 H19        -4.5788    9.6484  -10.0569 H         1 <0>         0.1475
     50 H20        -4.9381   14.6293   -6.8423 H         1 <0>         0.0602
     51 H21        -3.2568   14.7941   -7.4029 H         1 <0>         0.0603
     52 H22        -4.5127   15.8940   -8.0203 H         1 <0>         0.1055
@<TRIPOS>BOND
     1    1    2 1
     2    1   31 1
     3    1   32 1
     4    1   33 1
     5    2    7 ar
     6    2    3 ar
     7    3    4 ar
     8    3   34 1
     9    4    5 ar
    10    4   35 1
    11    5    6 ar
    12    5    8 1
    13    6    7 ar
    14    6   36 1
    15    7   37 1
    16    8    9 2
    17    8   10 2
    18    8   11 1
    19   11   12 1
    20   11   38 1
    21   12   13 1
    22   12   39 1
    23   12   40 1
    24   13   14 2
    25   13   15 am
    26   15   16 1
    27   15   41 1
    28   16   17 1
    29   16   42 1
    30   16   43 1
    31   17   18 2
    32   17   19 am
    33   19   20 1
    34   19   44 1
    35   20   21 am
    36   20   45 1
    37   21   22 2
    38   21   23 1
    39   23   28 ar
    40   23   24 ar
    41   24   25 ar
    42   24   46 1
    43   25   26 ar
    44   25   47 1
    45   26   27 ar
    46   26   29 1
    47   27   28 ar
    48   27   48 1
    49   28   49 1
    50   29   30 1
    51   30   50 1
    52   30   51 1
    53   30   52 1
@<TRIPOS>MOLECULE
ZINC31164871
   66    67     0     0     0
SMALL
USER_CHARGES
(2R,3S,4S,5R,6R)-2-[[(2S,3R,4R)-3,4-dihydroxy-4-(hydroxymethyl)tetrahydrofuran-2-yl]oxymethyl]-6-[(3S)-3-ethyl-3-hydroxy-4-methyl-pentoxy]tetrahydropyran-3,4,5-triol
@<TRIPOS>ATOM
      1 C1          5.4781    7.0471   -3.8865 C.3       1 <0>        -0.1538
      2 C2          4.8919    7.8683   -2.7363 C.3       1 <0>        -0.1150
      3 C3          5.8223    7.7852   -1.5245 C.3       1 <0>         0.1578
      4 C4          5.9983    6.3212   -1.1161 C.3       1 <0>        -0.1470
      5 C5          4.6427    5.7378   -0.7125 C.3       1 <0>         0.0597
      6 O1          4.7997    4.3588   -0.3725 O.3       1 <0>        -0.3533
      7 C6          3.5861    3.7153    0.0213 C.3       1 <0>         0.2712
      8 H1          2.8369    3.9151   -0.7589 H         1 <0>         0.0633
      9 C7          3.8473    2.2229    0.2404 C.3       1 <0>         0.1172
     10 H2          4.6737    2.0589    0.9476 H         1 <0>         0.0800
     11 C8          2.5567    1.5516    0.7200 C.3       1 <0>         0.1007
     12 H3          1.7832    1.5579   -0.0621 H         1 <0>         0.0732
     13 C9          2.0739    2.2505    1.9947 C.3       1 <0>         0.0641
     14 H4          2.7697    2.0880    2.8310 H         1 <0>         0.0774
     15 C10         1.8815    3.7423    1.7093 C.3       1 <0>         0.0771
     16 H5          1.1497    3.9049    0.9043 H         1 <0>         0.0801
     17 O2          3.1104    4.2977    1.2365 O.3       1 <0>        -0.3830
     18 C11         1.4578    4.4570    2.9941 C.3       1 <0>         0.0649
     19 O3          1.1657    5.8254    2.7038 O.3       1 <0>        -0.3385
     20 C12         0.7578    6.5868    3.8421 C.3       1 <0>         0.2448
     21 H6          0.0167    5.9510    4.3486 H         1 <0>         0.0840
     22 C13         0.2629    7.9835    3.4056 C.3       1 <0>         0.1161
     23 H7         -0.8160    8.0453    3.2004 H         1 <0>         0.0861
     24 C14         0.7627    8.9253    4.5239 C.3       1 <0>         0.0868
     25 C15         1.5004    7.9861    5.5038 C.3       1 <0>         0.0334
     26 O4          1.8869    6.8456    4.7047 O.3       1 <0>        -0.3762
     27 C16        -0.4180    9.6080    5.2173 C.3       1 <0>         0.0637
     28 O5          0.0687   10.4724    6.2459 O.3       1 <0>        -0.6010
     29 O6          1.6618    9.9007    3.9925 O.3       1 <0>        -0.5589
     30 O7          0.8381    8.3485    2.1494 O.3       1 <0>        -0.5539
     31 O8          0.8317    1.6799    2.4109 O.3       1 <0>        -0.5902
     32 O9          2.8095    0.1728    0.9973 O.3       1 <0>        -0.5915
     33 O10         4.2678    1.6263   -0.9882 O.3       1 <0>        -0.5785
     34 C17         5.2145    8.5699   -0.3602 C.3       1 <0>        -0.1237
     35 C18         6.1448    8.4868    0.8516 C.3       1 <0>        -0.1523
     36 C19         5.0385   10.0339   -0.7686 C.3       1 <0>        -0.1429
     37 O11         7.0945    8.3419   -1.8616 O.3       1 <0>        -0.5770
     38 H8          4.8092    7.1068   -4.7577 H         1 <0>         0.0510
     39 H9          5.5794    5.9975   -3.5732 H         1 <0>         0.0563
     40 H10         6.4671    7.4466   -4.1554 H         1 <0>         0.0634
     41 H11         4.7906    8.9179   -3.0496 H         1 <0>         0.0729
     42 H12         3.9029    7.4688   -2.4674 H         1 <0>         0.0731
     43 H13         6.4054    5.7505   -1.9638 H         1 <0>         0.0815
     44 H14         6.6924    6.2588   -0.2650 H         1 <0>         0.0748
     45 H15         4.2510    6.2873    0.1562 H         1 <0>         0.0693
     46 H16         3.9388    5.8304   -1.5527 H         1 <0>         0.0521
     47 H17         0.5615    3.9701    3.4060 H         1 <0>         0.0672
     48 H18         2.2743    4.4043    3.7293 H         1 <0>         0.0724
     49 H19         2.3754    8.5059    5.9213 H         1 <0>         0.1051
     50 H20         0.8203    7.6998    6.3195 H         1 <0>         0.0706
     51 H21        -0.9849   10.1969    4.4812 H         1 <0>         0.0544
     52 H22        -1.0746    8.8446    5.6601 H         1 <0>         0.0526
     53 H23        -0.6384   11.0522    6.8573 H         1 <0>         0.4193
     54 H24         2.1126   10.6528    4.6567 H         1 <0>         0.4167
     55 H25         0.5902    9.3176    1.6918 H         1 <0>         0.4106
     56 H26         0.3286    2.0563    3.3138 H         1 <0>         0.4126
     57 H27         1.9952   -0.4746    1.3549 H         1 <0>         0.4231
     58 H28         4.5027    0.5523   -1.0260 H         1 <0>         0.4209
     59 H29         4.2352    8.1413   -0.1007 H         1 <0>         0.0799
     60 H30         5.7078    9.0510    1.6887 H         1 <0>         0.0589
     61 H31         7.1241    8.9154    0.5921 H         1 <0>         0.0538
     62 H32         6.2713    7.4343    1.1452 H         1 <0>         0.0582
     63 H33         4.6015   10.5981    0.0685 H         1 <0>         0.0519
     64 H34         4.3697   10.0936   -1.6399 H         1 <0>         0.0542
     65 H35         6.0178   10.4624   -1.0280 H         1 <0>         0.0593
     66 H36         7.8987    8.3701   -1.1116 H         1 <0>         0.3988
@<TRIPOS>BOND
     1    1    2 1
     2    1   38 1
     3    1   39 1
     4    1   40 1
     5    2    3 1
     6    2   41 1
     7    2   42 1
     8    3    4 1
     9    3   34 1
    10    3   37 1
    11    4    5 1
    12    4   43 1
    13    4   44 1
    14    5    6 1
    15    5   45 1
    16    5   46 1
    17    6    7 1
    18    7    8 1
    19    7   17 1
    20    7    9 1
    21    9   10 1
    22    9   11 1
    23    9   33 1
    24   11   12 1
    25   11   13 1
    26   11   32 1
    27   13   14 1
    28   13   15 1
    29   13   31 1
    30   15   16 1
    31   15   17 1
    32   15   18 1
    33   18   19 1
    34   18   47 1
    35   18   48 1
    36   19   20 1
    37   20   21 1
    38   20   26 1
    39   20   22 1
    40   22   23 1
    41   22   24 1
    42   22   30 1
    43   24   25 1
    44   24   27 1
    45   24   29 1
    46   25   26 1
    47   25   49 1
    48   25   50 1
    49   27   28 1
    50   27   51 1
    51   27   52 1
    52   28   53 1
    53   29   54 1
    54   30   55 1
    55   31   56 1
    56   32   57 1
    57   33   58 1
    58   34   35 1
    59   34   36 1
    60   34   59 1
    61   35   60 1
    62   35   61 1
    63   35   62 1
    64   36   63 1
    65   36   64 1
    66   36   65 1
    67   37   66 1
@<TRIPOS>MOLECULE
ZINC45494997
   61    64     0     0     0
SMALL
USER_CHARGES

@<TRIPOS>ATOM
      1 C1         -0.0167    1.3823    0.0096 C.ar      1 <0>        -0.1679
      2 C2          1.1808    2.0721    0.0019 C.ar      1 <0>         0.1025
      3 N1          2.3308    1.4269   -0.0130 N.ar      1 <0>        -0.4845
      4 C3          2.3867    0.1094   -0.0206 C.ar      1 <0>         0.1032
      5 C4          1.2303   -0.6473   -0.0132 C.ar      1 <0>        -0.1672
      6 C5          0.0021   -0.0041    0.0020 C.ar      1 <0>        -0.0398
      7 C6         -1.2819   -0.7930    0.0105 C.3       1 <0>        -0.0968
      8 C7         -1.7307   -1.0523   -1.4290 C.3       1 <0>         0.1403
      9 N2         -2.9789   -1.8193   -1.4207 N.pl3     1 <0>        -0.6831
     10 C8         -3.5796   -2.1747   -2.6139 C.ar      1 <0>         0.6278
     11 N3         -3.0062   -1.8156   -3.7544 N.ar      1 <0>        -0.5958
     12 C9         -3.5449   -2.1335   -4.9192 C.ar      1 <0>         0.2749
     13 C10        -4.7375   -2.8595   -4.9403 C.ar      1 <0>        -0.2839
     14 C11        -5.3177   -3.2234   -3.7080 C.ar      1 <0>         0.5279
     15 N4         -4.7079   -2.8682   -2.5833 N.ar      1 <0>        -0.6202
     16 N5         -6.4976   -3.9421   -3.6714 N.pl3     1 <0>        -0.6863
     17 C12        -7.0893   -4.3136   -2.3838 C.3       1 <0>         0.1233
     18 C13        -8.3810   -5.0979   -2.6234 C.3       1 <0>        -0.1695
     19 C14        -8.9990   -5.4859   -1.2786 C.3       1 <0>         0.0674
     20 F1        -10.1800   -6.2031   -1.4977 F         1 <0>        -0.2132
     21 C15        -5.3737   -3.2352   -6.2180 C.2       1 <0>         0.2806
     22 N6         -6.4923   -3.9082   -6.3635 N.2       1 <0>        -0.3201
     23 N7         -6.7414   -4.0509   -7.6176 N.2       1 <0>        -0.2376
     24 C16        -5.8015   -3.4805   -8.3168 C.2       1 <0>         0.1330
     25 O1         -4.9183   -2.9466   -7.4538 O.3       1 <0>        -0.2272
     26 C17        -5.7217   -3.4235   -9.8206 C.3       1 <0>         0.1619
     27 N8         -6.4099   -2.2184  -10.3022 N.3       1 <0>        -0.5383
     28 C18        -5.7046   -1.0022   -9.8735 C.3       1 <0>         0.0178
     29 C19        -6.4838    0.2281  -10.3432 C.3       1 <0>        -0.0011
     30 N9         -6.6049    0.2019  -11.8068 N.4       1 <0>        -0.5084
     31 C20        -7.3328   -1.0059  -12.2181 C.3       1 <0>        -0.0024
     32 C21        -6.5606   -2.2465  -11.7639 C.3       1 <0>         0.0265
     33 H1         -0.9553    1.9163    0.0259 H         1 <0>         0.1354
     34 H2          1.1748    3.1521    0.0078 H         1 <0>         0.1575
     35 H3          3.3473   -0.3840   -0.0331 H         1 <0>         0.1580
     36 H4          1.2825   -1.7260   -0.0195 H         1 <0>         0.1360
     37 H5         -1.1205   -1.7443    0.5177 H         1 <0>         0.0877
     38 H6         -2.0522   -0.2277    0.5351 H         1 <0>         0.0873
     39 H7         -1.8921   -0.1011   -1.9362 H         1 <0>         0.0760
     40 H8         -0.9604   -1.6176   -1.9535 H         1 <0>         0.0768
     41 H9         -3.3837   -2.0777   -0.5780 H         1 <0>         0.4191
     42 H10        -3.0692   -1.8355   -5.8418 H         1 <0>         0.1725
     43 H11        -6.9339   -4.2006   -4.4983 H         1 <0>         0.4291
     44 H12        -6.3866   -4.9325   -1.8260 H         1 <0>         0.0779
     45 H13        -7.3122   -3.4123   -1.8128 H         1 <0>         0.0774
     46 H14        -9.0837   -4.4790   -3.1812 H         1 <0>         0.0830
     47 H15        -8.1581   -5.9993   -3.1944 H         1 <0>         0.0839
     48 H16        -8.2962   -6.1048   -0.7209 H         1 <0>         0.0799
     49 H17        -9.2219   -4.5845   -0.7077 H         1 <0>         0.0794
     50 H18        -4.6764   -3.3923  -10.1280 H         1 <0>         0.0830
     51 H19        -6.1985   -4.3077  -10.2436 H         1 <0>         0.1358
     52 H20        -5.6275   -0.9907   -8.7863 H         1 <0>         0.1185
     53 H21        -4.7057   -0.9884  -10.3094 H         1 <0>         0.0703
     54 H22        -7.4780    0.2210   -9.8962 H         1 <0>         0.1407
     55 H23        -5.9550    1.1312  -10.0386 H         1 <0>         0.1414
     56 H24        -7.1080    1.0196  -12.1172 H         1 <0>         0.4364
     57 H25        -8.3226   -1.0066  -11.7615 H         1 <0>         0.1421
     58 H26        -7.4333   -1.0176  -13.3033 H         1 <0>         0.1435
     59 H27        -5.5758   -2.2531  -12.2310 H         1 <0>         0.0690
     60 H28        -7.1080   -3.1427  -12.0559 H         1 <0>         0.1316
     61 H29        -5.6845    0.1967  -12.2202 H         1 <0>         0.4269
@<TRIPOS>BOND
     1    1    6 ar
     2    1    2 ar
     3    1   33 1
     4    2    3 ar
     5    2   34 1
     6    3    4 ar
     7    4    5 ar
     8    4   35 1
     9    5    6 ar
    10    5   36 1
    11    6    7 1
    12    7    8 1
    13    7   37 1
    14    7   38 1
    15    8    9 1
    16    8   39 1
    17    8   40 1
    18    9   10 1
    19    9   41 1
    20   10   15 ar
    21   10   11 ar
    22   11   12 ar
    23   12   13 ar
    24   12   42 1
    25   13   14 ar
    26   13   21 1
    27   14   15 ar
    28   14   16 1
    29   16   17 1
    30   16   43 1
    31   17   18 1
    32   17   44 1
    33   17   45 1
    34   18   19 1
    35   18   46 1
    36   18   47 1
    37   19   20 1
    38   19   48 1
    39   19   49 1
    40   21   25 1
    41   21   22 2
    42   22   23 1
    43   23   24 2
    44   24   25 1
    45   24   26 1
    46   26   27 1
    47   26   50 1
    48   26   51 1
    49   27   32 1
    50   27   28 1
    51   28   29 1
    52   28   52 1
    53   28   53 1
    54   29   30 1
    55   29   54 1
    56   29   55 1
    57   30   31 1
    58   30   56 1
    59   30   61 1
    60   31   32 1
    61   31   57 1
    62   31   58 1
    63   32   59 1
    64   32   60 1
@<TRIPOS>MOLECULE
ZINC59887310
   55    57     0     0     0
SMALL
USER_CHARGES

@<TRIPOS>ATOM
      1 C1         -0.3549    1.1811   -1.9180 C.3       1 <0>        -0.1749
      2 C2         -0.2489   -0.1652   -1.2491 C.2       1 <0>         0.5105
      3 O1          0.8008   -0.5143   -0.7517 O.2       1 <0>        -0.5177
      4 N1         -1.3206   -0.9813   -1.2036 N.am      1 <0>        -0.6743
      5 C3         -1.1929   -2.2767   -0.6863 C.ar      1 <0>         0.1195
      6 C4          0.0398   -2.9125   -0.6993 C.ar      1 <0>        -0.1121
      7 C5          0.1635   -4.1904   -0.1879 C.ar      1 <0>        -0.1128
      8 C6         -0.9391   -4.8393    0.3375 C.ar      1 <0>        -0.1142
      9 C7         -2.1711   -4.2134    0.3545 C.ar      1 <0>        -0.1092
     10 C8         -2.3034   -2.9286   -0.1514 C.ar      1 <0>         0.1164
     11 N2         -3.5499   -2.2902   -0.1303 N.am      1 <0>        -0.6646
     12 C9         -4.6815   -3.0220   -0.1064 C.2       1 <0>         0.5371
     13 O2         -4.6249   -4.2297   -0.2044 O.2       1 <0>        -0.4921
     14 C10        -6.0170   -2.3398    0.0420 C.3       1 <0>        -0.1652
     15 S1         -7.3358   -3.5854    0.0393 S.3       1 <0>         0.1189
     16 C11        -8.8133   -2.6422    0.2181 C.2       1 <0>         0.2159
     17 N3        -10.0524   -3.1422    0.2730 N.2       1 <0>        -0.5185
     18 C12       -10.9202   -2.1613    0.4095 C.2       1 <0>         0.5654
     19 N4        -10.2334   -0.9993    0.4442 N.pl3     1 <0>        -0.5057
     20 N5         -8.8756   -1.3362    0.3246 N.2       1 <0>        -0.3266
     21 N6        -12.2927   -2.2972    0.5011 N.pl3     1 <0>        -0.5510
     22 N7        -12.8754   -3.5703    0.4510 N.2       1 <0>        -0.2159
     23 C13       -14.1636   -3.6979    0.5370 C.2       1 <0>         0.1541
     24 C14       -14.7776   -5.0392    0.4843 C.2       1 <0>        -0.2080
     25 C15       -14.0949   -6.2673    0.3502 C.2       1 <0>         0.0963
     26 N8        -14.9812   -7.2263    0.3441 N.2       1 <0>        -0.2960
     27 N9        -16.2564   -6.6641    0.4725 N.pl3     1 <0>        -0.3625
     28 C16       -16.1232   -5.3254    0.5629 C.2       1 <0>         0.0989
     29 C17       -17.5202   -7.4042    0.5074 C.3       1 <0>         0.1354
     30 C18       -17.6268   -8.2903   -0.7353 C.3       1 <0>         0.0499
     31 O3        -18.8595   -9.0123   -0.7012 O.3       1 <0>        -0.3908
     32 C19       -19.0592   -9.8747   -1.8231 C.3       1 <0>         0.0335
     33 H1          0.6047    1.6942   -1.8560 H         1 <0>         0.0991
     34 H2         -0.6279    1.0463   -2.9646 H         1 <0>         0.0934
     35 H3         -1.1183    1.7765   -1.4172 H         1 <0>         0.0917
     36 H4         -2.1802   -0.6716   -1.5291 H         1 <0>         0.4070
     37 H5          0.9028   -2.4091   -1.1094 H         1 <0>         0.1487
     38 H6          1.1241   -4.6841   -0.1988 H         1 <0>         0.1284
     39 H7         -0.8371   -5.8382    0.7352 H         1 <0>         0.1293
     40 H8         -3.0301   -4.7230    0.7655 H         1 <0>         0.1508
     41 H9         -3.5988   -1.3215   -0.1328 H         1 <0>         0.4087
     42 H10        -6.0406   -1.7878    0.9815 H         1 <0>         0.1269
     43 H11        -6.1670   -1.6501   -0.7886 H         1 <0>         0.1254
     44 H12       -12.8524   -1.5112    0.6000 H         1 <0>         0.3979
     45 H13       -14.7868   -2.8227    0.6472 H         1 <0>         0.1197
     46 H14       -13.0254   -6.3921    0.2664 H         1 <0>         0.1955
     47 H15       -16.9238   -4.6092    0.6746 H         1 <0>         0.1857
     48 H16       -17.5520   -8.0269    1.4015 H         1 <0>         0.0996
     49 H17       -18.3528   -6.7010    0.5247 H         1 <0>         0.1088
     50 H18       -17.5950   -7.6676   -1.6294 H         1 <0>         0.0557
     51 H19       -16.7942   -8.9936   -0.7526 H         1 <0>         0.0680
     52 H20       -19.0572   -9.2848   -2.7397 H         1 <0>         0.0441
     53 H21       -18.2564  -10.6108   -1.8629 H         1 <0>         0.0460
     54 H22       -20.0165  -10.3862   -1.7223 H         1 <0>         0.0917
     55 H23       -10.6046   -0.1079    0.5372 H         1 <0>         0.4383
@<TRIPOS>BOND
     1    1    2 1
     2    1   33 1
     3    1   34 1
     4    1   35 1
     5    2    3 2
     6    2    4 am
     7    4    5 1
     8    4   36 1
     9    5   10 ar
    10    5    6 ar
    11    6    7 ar
    12    6   37 1
    13    7    8 ar
    14    7   38 1
    15    8    9 ar
    16    8   39 1
    17    9   10 ar
    18    9   40 1
    19   10   11 1
    20   11   12 am
    21   11   41 1
    22   12   13 2
    23   12   14 1
    24   14   15 1
    25   14   42 1
    26   14   43 1
    27   15   16 1
    28   16   20 2
    29   16   17 1
    30   17   18 2
    31   18   19 1
    32   18   21 1
    33   19   20 1
    34   19   55 1
    35   21   22 1
    36   21   44 1
    37   22   23 2
    38   23   24 1
    39   23   45 1
    40   24   28 2
    41   24   25 1
    42   25   26 2
    43   25   46 1
    44   26   27 1
    45   27   28 1
    46   27   29 1
    47   28   47 1
    48   29   30 1
    49   29   48 1
    50   29   49 1
    51   30   31 1
    52   30   50 1
    53   30   51 1
    54   31   32 1
    55   32   52 1
    56   32   53 1
    57   32   54 1
@<TRIPOS>MOLECULE
ZINC09284133
   42    43     0     0     0
SMALL
USER_CHARGES
(3-carbamoyl-2-thienyl)carbamoylmethyl 2-(2-cyanophenyl)sulfonylaminoacetate
@<TRIPOS>ATOM
      1 C1         -1.2457    3.4919    0.0319 C.ar      1 <0>        -0.0621
      2 C2         -0.0549    4.1969    0.0248 C.ar      1 <0>        -0.1071
      3 C3          1.1542    3.5248    0.0100 C.ar      1 <0>        -0.0155
      4 C4          1.1802    2.1454    0.0023 C.ar      1 <0>        -0.6411
      5 C5         -0.0173    1.4278    0.0099 C.ar      1 <0>         0.0660
      6 C6         -1.2343    2.1127    0.0194 C.ar      1 <0>        -0.0839
      7 C7          0.0021   -0.0041    0.0020 C.1       1 <0>         0.2055
      8 N1          0.0175   -1.1399   -0.0042 N.1       1 <0>        -0.3487
      9 S1          2.7213    1.2913   -0.0176 S.o2      1 <0>         2.6920
     10 O1          2.6322    0.3168   -1.0479 O.2       1 <0>        -0.9362
     11 O2          3.7367    2.2852    0.0052 O.2       1 <0>        -0.9352
     12 N2          2.8395    0.4610    1.4103 N.pl3     1 <0>        -1.1067
     13 C8          1.9028   -0.6261    1.7051 C.3       1 <0>         0.1133
     14 C9          2.4301   -1.4457    2.8546 C.2       1 <0>         0.4708
     15 O3          3.4806   -1.1518    3.3742 O.2       1 <0>        -0.4888
     16 O4          1.7329   -2.5021    3.3012 O.3       1 <0>        -0.3238
     17 C10         2.3012   -3.2455    4.4115 C.3       1 <0>         0.0552
     18 C11         1.3861   -4.3870    4.7726 C.2       1 <0>         0.5077
     19 O5          0.3563   -4.5574    4.1550 O.2       1 <0>        -0.4720
     20 N3          1.7121   -5.2187    5.7818 N.am      1 <0>        -0.6070
     21 C12         0.8701   -6.2691    6.1140 C.2       1 <0>         0.1161
     22 C13         1.0346   -7.2262    7.1083 C.2       1 <0>        -0.2590
     23 C14        -0.0103   -8.2136    7.2382 C.2       1 <0>        -0.1074
     24 C15        -1.0448   -8.1293    6.3825 C.2       1 <0>        -0.2340
     25 S2         -0.6375   -6.7109    5.3858 S.3       1 <0>         0.2336
     26 C16         2.2100   -7.2305    7.9847 C.2       1 <0>         0.5905
     27 O6          3.0720   -6.3816    7.8510 O.2       1 <0>        -0.5643
     28 N4          2.3361   -8.1744    8.9385 N.am      1 <0>        -0.8472
     29 H1         -2.1861    4.0229    0.0430 H         1 <0>         0.1467
     30 H2         -0.0695    5.2768    0.0304 H         1 <0>         0.1459
     31 H3          2.0798    4.0812    0.0042 H         1 <0>         0.1576
     32 H4         -2.1644    1.5637    0.0208 H         1 <0>         0.1472
     33 H5          3.5289    0.6945    2.0515 H         1 <0>         0.4335
     34 H6          0.9326   -0.2073    1.9725 H         1 <0>         0.1102
     35 H7          1.7946   -1.2610    0.8258 H         1 <0>         0.1360
     36 H8          3.2765   -3.6385    4.1243 H         1 <0>         0.1174
     37 H9          2.4145   -2.5848    5.2710 H         1 <0>         0.1170
     38 H10         2.5357   -5.0825    6.2757 H         1 <0>         0.4364
     39 H11         0.0384   -8.9896    7.9878 H         1 <0>         0.1418
     40 H12        -1.9134   -8.7678    6.3162 H         1 <0>         0.1915
     41 H13         1.6492   -8.8509    9.0451 H         1 <0>         0.4024
     42 H14         3.1137   -8.1773    9.5183 H         1 <0>         0.4057
@<TRIPOS>BOND
     1    1    6 ar
     2    1    2 ar
     3    1   29 1
     4    2    3 ar
     5    2   30 1
     6    3    4 ar
     7    3   31 1
     8    4    5 ar
     9    4    9 1
    10    5    6 ar
    11    5    7 1
    12    6   32 1
    13    7    8 3
    14    9   10 2
    15    9   11 2
    16    9   12 1
    17   12   13 1
    18   12   33 1
    19   13   14 1
    20   13   34 1
    21   13   35 1
    22   14   15 2
    23   14   16 1
    24   16   17 1
    25   17   18 1
    26   17   36 1
    27   17   37 1
    28   18   19 2
    29   18   20 am
    30   20   21 1
    31   20   38 1
    32   21   25 1
    33   21   22 2
    34   22   23 1
    35   22   26 1
    36   23   24 2
    37   23   39 1
    38   24   25 1
    39   24   40 1
    40   26   27 2
    41   26   28 am
    42   28   41 1
    43   28   42 1
@<TRIPOS>MOLECULE
ZINC25489545
   56    57     0     0     0
SMALL
USER_CHARGES
N,N-bis(2-hydroxyethyl)-3-methoxy-4-[(2S,3S,4S,5S,6S)-3,4,5-trihydroxy-6-(hydroxymethyl)tetrahydropyran-2-yl]oxy-benzamide
@<TRIPOS>ATOM
      1 C1          2.0798    4.0967    1.3697 C.3       1 <0>         0.0210
      2 O1          0.8331    3.4056    1.2697 O.3       1 <0>        -0.2965
      3 C2          0.8813    2.0934    0.9154 C.ar      1 <0>         0.0995
      4 C3          2.0987    1.4881    0.6710 C.ar      1 <0>        -0.1272
      5 C4          2.1445    0.1398    0.3072 C.ar      1 <0>        -0.1289
      6 C5          0.9590   -0.5903    0.1926 C.ar      1 <0>        -0.0982
      7 C6         -0.2521    0.0193    0.4381 C.ar      1 <0>        -0.1626
      8 C7         -0.2979    1.3590    0.7992 C.ar      1 <0>         0.1253
      9 O2         -1.4944    1.9569    1.0342 O.3       1 <0>        -0.2764
     10 C8         -2.6633    1.1474    0.8912 C.3       1 <0>         0.2548
     11 H1         -2.5115    0.2375    1.4904 H         1 <0>         0.1150
     12 C9         -3.8958    1.9511    1.3140 C.3       1 <0>         0.1239
     13 H2         -4.8014    1.3267    1.3175 H         1 <0>         0.1008
     14 C10        -4.0508    3.1595    0.3855 C.3       1 <0>         0.0957
     15 H3         -4.9215    3.7725    0.6613 H         1 <0>         0.0682
     16 C11        -4.1457    2.6682   -1.0623 C.3       1 <0>         0.0637
     17 H4         -4.2680    3.5056   -1.7650 H         1 <0>         0.0685
     18 C12        -2.9036    1.8368   -1.3932 C.3       1 <0>         0.0613
     19 H5         -1.9829    2.4249   -1.2651 H         1 <0>         0.0891
     20 O3         -2.8022    0.7476   -0.4737 O.3       1 <0>        -0.3648
     21 C13        -3.0189    1.2923   -2.8184 C.3       1 <0>         0.0934
     22 O4         -1.8106    0.6147   -3.1687 O.3       1 <0>        -0.5870
     23 O5         -5.3153    1.8620   -1.2173 O.3       1 <0>        -0.5859
     24 O6         -2.9183    4.0195    0.5270 O.3       1 <0>        -0.5521
     25 O7         -3.7335    2.4013    2.6605 O.3       1 <0>        -0.5764
     26 C14         3.4427   -0.5119    0.0450 C.2       1 <0>         0.5617
     27 O8          4.2778    0.0494   -0.6375 O.2       1 <0>        -0.5384
     28 N1          3.7024   -1.7291    0.5621 N.am      1 <0>        -0.5896
     29 C15         5.0366   -2.3167    0.4181 C.3       1 <0>         0.1142
     30 C16         5.9053   -1.9076    1.6093 C.3       1 <0>         0.0700
     31 O9          5.3696   -2.4748    2.8066 O.3       1 <0>        -0.5975
     32 C17         2.6504   -2.4646    1.2683 C.3       1 <0>         0.0959
     33 C18         2.0215   -3.4894    0.3221 C.3       1 <0>         0.0628
     34 O10         2.9786   -4.5055    0.0163 O.3       1 <0>        -0.5943
     35 H6          1.8975    5.1415    1.6616 H         1 <0>         0.1031
     36 H7          2.5919    4.0719    0.3965 H         1 <0>         0.0560
     37 H8          2.7097    3.6087    2.1280 H         1 <0>         0.0543
     38 H9          3.0130    2.0560    0.7603 H         1 <0>         0.1401
     39 H10         0.9917   -1.6325   -0.0888 H         1 <0>         0.1370
     40 H11        -1.1679   -0.5464    0.3492 H         1 <0>         0.1443
     41 H12        -3.8631    0.5894   -2.8752 H         1 <0>         0.0528
     42 H13        -3.1878    2.1253   -3.5167 H         1 <0>         0.0566
     43 H14        -1.7065    0.1540   -4.1622 H         1 <0>         0.4112
     44 H15        -5.5516    1.4181   -2.1956 H         1 <0>         0.4103
     45 H16        -2.8527    4.9444   -0.0648 H         1 <0>         0.4017
     46 H17        -4.5231    2.9988    3.1396 H         1 <0>         0.4137
     47 H18         4.9528   -3.4130    0.3848 H         1 <0>         0.1020
     48 H19         5.4977   -1.9558   -0.5131 H         1 <0>         0.0964
     49 H20         6.9315   -2.2734    1.4575 H         1 <0>         0.0513
     50 H21         5.9160   -0.8111    1.6959 H         1 <0>         0.0416
     51 H22         5.8634   -2.2893    3.7719 H         1 <0>         0.4051
     52 H23         3.0849   -2.9841    2.1351 H         1 <0>         0.0988
     53 H24         1.8782   -1.7606    1.6120 H         1 <0>         0.1048
     54 H25         1.1447   -3.9450    0.8055 H         1 <0>         0.0555
     55 H26         1.7094   -2.9883   -0.6061 H         1 <0>         0.0469
     56 H27         2.7061   -5.3339   -0.6542 H         1 <0>         0.4074
@<TRIPOS>BOND
     1    1    2 1
     2    1   35 1
     3    1   36 1
     4    1   37 1
     5    2    3 1
     6    3    8 ar
     7    3    4 ar
     8    4    5 ar
     9    4   38 1
    10    5    6 ar
    11    5   26 1
    12    6    7 ar
    13    6   39 1
    14    7    8 ar
    15    7   40 1
    16    8    9 1
    17    9   10 1
    18   10   11 1
    19   10   20 1
    20   10   12 1
    21   12   13 1
    22   12   14 1
    23   12   25 1
    24   14   15 1
    25   14   16 1
    26   14   24 1
    27   16   17 1
    28   16   18 1
    29   16   23 1
    30   18   19 1
    31   18   20 1
    32   18   21 1
    33   21   22 1
    34   21   41 1
    35   21   42 1
    36   22   43 1
    37   23   44 1
    38   24   45 1
    39   25   46 1
    40   26   27 2
    41   26   28 am
    42   28   29 1
    43   28   32 1
    44   29   30 1
    45   29   47 1
    46   29   48 1
    47   30   31 1
    48   30   49 1
    49   30   50 1
    50   31   51 1
    51   32   33 1
    52   32   52 1
    53   32   53 1
    54   33   34 1
    55   33   54 1
    56   33   55 1
    57   34   56 1
@<TRIPOS>MOLECULE
ZINC35877582
   51    53     0     0     0
SMALL
USER_CHARGES

@<TRIPOS>ATOM
      1 C1         -0.0173    1.4248    0.0099 C.3       1 <0>         0.0342
      2 O1          0.0021   -0.0041    0.0020 O.3       1 <0>        -0.3469
      3 C2          0.6015   -0.6028   -1.0481 C.2       1 <0>         0.5339
      4 O2          1.0942    0.0715   -1.9329 O.2       1 <0>        -0.5256
      5 C3          0.6571   -2.0154   -1.1204 C.2       1 <0>        -0.3039
      6 C4          1.2501   -2.6953   -2.1458 C.2       1 <0>         0.2025
      7 O3          1.3180   -4.0335   -2.1773 O.3       1 <0>        -0.3029
      8 C5          0.3194   -4.8679   -1.5712 C.3       1 <0>         0.2695
      9 H1         -0.1536   -5.4881   -2.3326 H         1 <0>         0.1080
     10 C6         -0.7099   -3.9750   -0.9312 C.3       1 <0>        -0.0948
     11 H2         -1.2445   -3.4431   -1.7182 H         1 <0>         0.1030
     12 C7          0.0745   -2.9247   -0.0721 C.3       1 <0>        -0.0295
     13 H3          0.8426   -3.3745    0.5570 H         1 <0>         0.1067
     14 C8         -1.1067   -2.3742    0.7319 C.3       1 <0>        -0.0832
     15 C9         -1.9631   -3.6161    0.9548 C.2       1 <0>        -0.1194
     16 C10        -1.7037   -4.5211    0.0274 C.2       1 <0>        -0.1419
     17 C11        -2.3206   -5.8945   -0.0381 C.3       1 <0>         0.1314
     18 O4         -3.2298   -6.0607    1.0517 O.3       1 <0>        -0.5683
     19 O5          0.9230   -5.6993   -0.5780 O.3       1 <0>        -0.3424
     20 C12         1.8590   -6.6438   -1.1013 C.3       1 <0>         0.2239
     21 H4          1.4048   -7.1834   -1.9324 H         1 <0>         0.0585
     22 C13         2.2521   -7.6352   -0.0030 C.3       1 <0>         0.0658
     23 H5          1.3715   -8.1923    0.3171 H         1 <0>         0.0674
     24 C14         3.3001   -8.6069   -0.5542 C.3       1 <0>         0.0788
     25 H6          2.8675   -9.1850   -1.3708 H         1 <0>         0.0776
     26 C15         4.4996   -7.8071   -1.0719 C.3       1 <0>         0.0902
     27 H7          5.2263   -8.4871   -1.5163 H         1 <0>         0.0723
     28 C16         4.0197   -6.8091   -2.1290 C.3       1 <0>         0.1126
     29 H8          3.5939   -7.3508   -2.9736 H         1 <0>         0.0775
     30 O6          3.0245   -5.9559   -1.5599 O.3       1 <0>        -0.3502
     31 C17         5.2025   -5.9651   -2.6080 C.3       1 <0>         0.0912
     32 O7          4.7794   -5.1148   -3.6758 O.3       1 <0>        -0.5657
     33 O8          5.1067   -7.1013    0.0122 O.3       1 <0>        -0.5279
     34 O9          3.7254   -9.4911    0.4847 O.3       1 <0>        -0.5472
     35 O10         2.7974   -6.9236    1.1098 O.3       1 <0>        -0.5208
     36 H9          1.0053    1.8021    0.0021 H         1 <0>         0.0596
     37 H10        -0.5445    1.7859   -0.8732 H         1 <0>         0.0589
     38 H11        -0.5275    1.7763    0.9067 H         1 <0>         0.1010
     39 H12         1.6800   -2.1336   -2.9619 H         1 <0>         0.1826
     40 H13        -0.7688   -1.9614    1.6825 H         1 <0>         0.0817
     41 H14        -1.6519   -1.6265    0.1560 H         1 <0>         0.0872
     42 H15        -2.6760   -3.7376    1.7570 H         1 <0>         0.1374
     43 H16        -2.8578   -6.0070   -0.9798 H         1 <0>         0.0528
     44 H17        -1.5361   -6.6486    0.0250 H         1 <0>         0.0582
     45 H18        -3.6649   -6.9241    1.0728 H         1 <0>         0.3841
     46 H19         5.5719   -5.3559   -1.7831 H         1 <0>         0.0681
     47 H20         5.9984   -6.6215   -2.9598 H         1 <0>         0.0611
     48 H21         5.4798   -4.5498   -4.0297 H         1 <0>         0.3824
     49 H22         5.4303   -7.6731    0.7217 H         1 <0>         0.3841
     50 H23         3.0133  -10.0250    0.8628 H         1 <0>         0.3859
     51 H24         2.1876   -6.2863    1.5062 H         1 <0>         0.3806
@<TRIPOS>BOND
     1    1    2 1
     2    1   36 1
     3    1   37 1
     4    1   38 1
     5    2    3 1
     6    3    4 2
     7    3    5 1
     8    5   12 1
     9    5    6 2
    10    6    7 1
    11    6   39 1
    12    7    8 1
    13    8    9 1
    14    8   10 1
    15    8   19 1
    16   10   11 1
    17   10   16 1
    18   10   12 1
    19   12   13 1
    20   12   14 1
    21   14   15 1
    22   14   40 1
    23   14   41 1
    24   15   16 2
    25   15   42 1
    26   16   17 1
    27   17   18 1
    28   17   43 1
    29   17   44 1
    30   18   45 1
    31   19   20 1
    32   20   21 1
    33   20   30 1
    34   20   22 1
    35   22   23 1
    36   22   24 1
    37   22   35 1
    38   24   25 1
    39   24   26 1
    40   24   34 1
    41   26   27 1
    42   26   28 1
    43   26   33 1
    44   28   29 1
    45   28   30 1
    46   28   31 1
    47   31   32 1
    48   31   46 1
    49   31   47 1
    50   32   48 1
    51   33   49 1
    52   34   50 1
    53   35   51 1
@<TRIPOS>MOLECULE
ZINC54501398
   42    43     0     0     0
SMALL
USER_CHARGES

@<TRIPOS>ATOM
      1 C1          1.6804   -1.4609   -5.7079 C.3       1 <0>        -0.1741
      2 C2          1.2848   -2.2896   -4.5130 C.2       1 <0>         0.5102
      3 O1          2.0524   -2.4173   -3.5826 O.2       1 <0>        -0.5251
      4 N1          0.0781   -2.8888   -4.4782 N.am      1 <0>        -0.6748
      5 C3         -0.2558   -3.7291   -3.4088 C.ar      1 <0>         0.1219
      6 C4          0.1877   -3.4309   -2.1268 C.ar      1 <0>        -0.0836
      7 C5         -0.1417   -4.2587   -1.0726 C.ar      1 <0>        -0.1268
      8 C6         -0.9169   -5.3901   -1.2938 C.ar      1 <0>         0.1577
      9 C7         -1.3605   -5.6881   -2.5762 C.ar      1 <0>        -0.1304
     10 C8         -1.0353   -4.8572   -3.6293 C.ar      1 <0>        -0.1066
     11 N2         -1.2505   -6.2293   -0.2256 N.pl3     1 <0>        -0.6421
     12 C9         -2.1827   -7.1907   -0.3888 C.2       1 <0>         0.3318
     13 C10        -1.8386   -8.5210   -0.2332 C.2       1 <0>        -0.3155
     14 C11        -2.8578   -9.5856   -0.2453 C.2       1 <0>         0.5627
     15 O2         -4.0361   -9.3209   -0.3938 O.2       1 <0>        -0.4640
     16 N3         -2.4489  -10.8614   -0.0877 N.am      1 <0>        -0.6112
     17 C12        -1.1542  -11.1670    0.0768 C.2       1 <0>         0.5414
     18 S1         -0.7282  -12.8139    0.2695 S.2       1 <0>        -0.4897
     19 N4         -0.1753  -10.2515    0.0981 N.am      1 <0>        -0.6136
     20 C13        -0.4360   -8.9368   -0.0541 C.2       1 <0>         0.5632
     21 O3          0.4619   -8.1158   -0.0384 O.2       1 <0>        -0.4534
     22 C14        -3.5991   -6.8150   -0.7406 C.3       1 <0>         0.1082
     23 H1         -4.0479   -7.6087   -1.3378 H         1 <0>         0.1671
     24 C15        -4.3972   -6.6250    0.5235 C.2       1 <0>         0.4599
     25 O4         -3.9235   -6.0118    1.4506 O.2       1 <0>        -0.4761
     26 O5         -5.6342   -7.1371    0.6196 O.3       1 <0>        -0.3223
     27 C16        -6.3333   -6.9188    1.8467 C.3       1 <0>         0.0306
     28 F1         -3.5970   -5.6237   -1.4742 F         1 <0>        -0.1560
     29 H2          2.6825   -1.0597   -5.5562 H         1 <0>         0.0975
     30 H3          1.6701   -2.0843   -6.6019 H         1 <0>         0.0925
     31 H4          0.9747   -0.6391   -5.8299 H         1 <0>         0.0925
     32 H5         -0.5590   -2.7381   -5.1939 H         1 <0>         0.4128
     33 H6          0.7907   -2.5516   -1.9549 H         1 <0>         0.1451
     34 H7          0.2035   -4.0270   -0.0758 H         1 <0>         0.1334
     35 H8         -1.9629   -6.5678   -2.7485 H         1 <0>         0.1233
     36 H9         -1.3835   -5.0866   -4.6255 H         1 <0>         0.1337
     37 H10        -0.8115   -6.1200    0.6324 H         1 <0>         0.4326
     38 H11        -3.1070  -11.5740   -0.0933 H         1 <0>         0.4521
     39 H12         0.7421  -10.5416    0.2213 H         1 <0>         0.4510
     40 H13        -6.4457   -5.8478    2.0152 H         1 <0>         0.0665
     41 H14        -7.3178   -7.3833    1.7915 H         1 <0>         0.1125
     42 H15        -5.7695   -7.3588    2.6692 H         1 <0>         0.0650
@<TRIPOS>BOND
     1    1    2 1
     2    1   29 1
     3    1   30 1
     4    1   31 1
     5    2    3 2
     6    2    4 am
     7    4    5 1
     8    4   32 1
     9    5   10 ar
    10    5    6 ar
    11    6    7 ar
    12    6   33 1
    13    7    8 ar
    14    7   34 1
    15    8    9 ar
    16    8   11 1
    17    9   10 ar
    18    9   35 1
    19   10   36 1
    20   11   12 1
    21   11   37 1
    22   12   13 2
    23   12   22 1
    24   13   20 1
    25   13   14 1
    26   14   15 2
    27   14   16 am
    28   16   17 1
    29   16   38 1
    30   17   18 2
    31   17   19 1
    32   19   20 am
    33   19   39 1
    34   20   21 2
    35   22   23 1
    36   22   24 1
    37   22   28 1
    38   24   25 2
    39   24   26 1
    40   26   27 1
    41   27   40 1
    42   27   41 1
    43   27   42 1
@<TRIPOS>MOLECULE
ZINC66654555
   48    48     0     0     0
SMALL
USER_CHARGES

@<TRIPOS>ATOM
      1 C1         -1.7128    0.5323   -0.1914 C.3       1 <0>        -0.1527
      2 C2         -1.5313   -0.9849   -0.1139 C.3       1 <0>         0.0563
      3 O1         -0.7026   -1.3091    1.0042 O.3       1 <0>        -0.3646
      4 C3         -0.4690   -2.7094    1.1679 C.3       1 <0>         0.0562
      5 C4          0.4117   -2.9345    2.3699 C.2       1 <0>         0.5155
      6 O2          0.8009   -1.9890    3.0221 O.2       1 <0>        -0.5144
      7 N1          0.7667   -4.1866    2.7200 N.am      1 <0>        -0.5246
      8 N2          1.5855   -4.3960    3.8375 N.am      1 <0>        -0.5204
      9 C5          1.9405   -5.6481    4.1876 C.2       1 <0>         0.5193
     10 O3          1.5512   -6.5936    3.5354 O.2       1 <0>        -0.5322
     11 C6          2.8212   -5.8733    5.3896 C.3       1 <0>        -0.1387
     12 C7          3.0713   -7.3725    5.5649 C.3       1 <0>         0.1296
     13 N3          3.9274   -7.5914    6.7334 N.pl3     1 <0>        -1.1194
     14 S1          4.0643   -9.1066    7.3873 S.o2      1 <0>         2.6999
     15 O4          4.9726   -8.9991    8.4749 O.2       1 <0>        -0.9557
     16 O5          2.7418   -9.6018    7.5454 O.2       1 <0>        -0.9522
     17 C8          4.8430  -10.1267    6.1799 C.ar      1 <0>        -0.6970
     18 C9          4.0748  -10.8116    5.2564 C.ar      1 <0>         0.0025
     19 C10         4.6820  -11.6120    4.3087 C.ar      1 <0>        -0.1439
     20 C11         6.0656  -11.7282    4.2837 C.ar      1 <0>         0.2051
     21 C12         6.8343  -11.0387    5.2123 C.ar      1 <0>        -0.1690
     22 C13         6.2212  -10.2362    6.1544 C.ar      1 <0>         0.0037
     23 N4          6.6839  -12.5387    3.3251 N.am      1 <0>        -0.6791
     24 C14         6.1428  -12.6625    2.0970 C.2       1 <0>         0.5112
     25 O6          5.1749  -11.9986    1.7910 O.2       1 <0>        -0.5164
     26 C15         6.7402  -13.6258    1.1040 C.3       1 <0>        -0.1722
     27 H1         -0.7398    1.0090   -0.3100 H         1 <0>         0.0652
     28 H2         -2.3449    0.7795   -1.0442 H         1 <0>         0.0750
     29 H3         -2.1829    0.8892    0.7249 H         1 <0>         0.0653
     30 H4         -2.5044   -1.4616    0.0047 H         1 <0>         0.0538
     31 H5         -1.0612   -1.3419   -1.0303 H         1 <0>         0.0536
     32 H6         -1.4200   -3.2218    1.3131 H         1 <0>         0.0887
     33 H7          0.0232   -3.1021    0.2781 H         1 <0>         0.0884
     34 H8          0.4554   -4.9429    2.1984 H         1 <0>         0.4339
     35 H9          1.8968   -3.6398    4.3591 H         1 <0>         0.4344
     36 H10         3.7722   -5.3608    5.2444 H         1 <0>         0.1114
     37 H11         2.3290   -5.4806    6.2794 H         1 <0>         0.1137
     38 H12         2.1203   -7.8850    5.7101 H         1 <0>         0.0939
     39 H13         3.5635   -7.7652    4.6752 H         1 <0>         0.0790
     40 H14         4.4141   -6.8488    7.1240 H         1 <0>         0.4201
     41 H15         2.9988  -10.7208    5.2764 H         1 <0>         0.1454
     42 H16         4.0815  -12.1472    3.5881 H         1 <0>         0.1445
     43 H17         7.9105  -11.1273    5.1956 H         1 <0>         0.1373
     44 H18         6.8186   -9.6965    6.8742 H         1 <0>         0.1456
     45 H19         7.5020  -13.0114    3.5445 H         1 <0>         0.4167
     46 H20         6.2648  -14.6007    1.2123 H         1 <0>         0.1018
     47 H21         6.5776  -13.2527    0.0928 H         1 <0>         0.1005
     48 H22         7.8102  -13.7208    1.2885 H         1 <0>         0.0848
@<TRIPOS>BOND
     1    1    2 1
     2    1   27 1
     3    1   28 1
     4    1   29 1
     5    2    3 1
     6    2   30 1
     7    2   31 1
     8    3    4 1
     9    4    5 1
    10    4   32 1
    11    4   33 1
    12    5    6 2
    13    5    7 am
    14    7    8 1
    15    7   34 1
    16    8    9 am
    17    8   35 1
    18    9   10 2
    19    9   11 1
    20   11   12 1
    21   11   36 1
    22   11   37 1
    23   12   13 1
    24   12   38 1
    25   12   39 1
    26   13   14 1
    27   13   40 1
    28   14   15 2
    29   14   16 2
    30   14   17 1
    31   17   22 ar
    32   17   18 ar
    33   18   19 ar
    34   18   41 1
    35   19   20 ar
    36   19   42 1
    37   20   21 ar
    38   20   23 1
    39   21   22 ar
    40   21   43 1
    41   22   44 1
    42   23   24 am
    43   23   45 1
    44   24   25 2
    45   24   26 1
    46   26   46 1
    47   26   47 1
    48   26   48 1
@<TRIPOS>MOLECULE
ZINC09544642
   73    73     0     0     0
SMALL
USER_CHARGES
tert-butylcarbamoylmethyl 4-[(6-amino-1-butyl-2,4-dioxo-pyrimidin-5-yl)-pentyl-amino]-4-oxo-butanoate
@<TRIPOS>ATOM
      1 C1         -3.5208  -10.7036   -2.3691 C.3       1 <0>        -0.1534
      2 C2         -3.7113   -9.1855   -2.3763 C.3       1 <0>        -0.1252
      3 C3         -2.3441   -8.4997   -2.3417 C.3       1 <0>        -0.1171
      4 C4         -2.5346   -6.9816   -2.3489 C.3       1 <0>        -0.1381
      5 C5         -1.1674   -6.2958   -2.3143 C.3       1 <0>         0.1019
      6 N1         -1.3498   -4.8423   -2.3211 N.am      1 <0>        -0.5280
      7 C6         -1.3585   -4.1266   -1.1052 C.2       1 <0>        -0.1425
      8 C7         -0.2204   -4.0483   -0.3288 C.2       1 <0>         0.4830
      9 N2         -0.2614   -3.3478    0.8543 N.am      1 <0>        -0.5380
     10 C8         -1.3947   -2.7369    1.2446 C.2       1 <0>         0.7123
     11 O1         -1.4094   -2.1186    2.2916 O.2       1 <0>        -0.5333
     12 N3         -2.5118   -2.7977    0.4983 N.am      1 <0>        -0.6630
     13 H1         -3.3411   -2.3347    0.8112 H         1 <0>         0.4396
     14 C9         -2.5265   -3.4753   -0.6661 C.2       1 <0>         0.5686
     15 O2         -3.5449   -3.5245   -1.3350 O.2       1 <0>        -0.5117
     16 C10         0.9378   -3.2615    1.6913 C.3       1 <0>         0.1041
     17 C11         0.9523   -4.4263    2.6832 C.3       1 <0>        -0.1394
     18 C12         2.2047   -4.3362    3.5574 C.3       1 <0>        -0.1208
     19 C13         2.2193   -5.5010    4.5493 C.3       1 <0>        -0.1535
     20 N4          0.9391   -4.6673   -0.7304 N.pl3     1 <0>        -0.8319
     21 C14        -1.5096   -4.1879   -3.4903 C.2       1 <0>         0.5227
     22 O3         -1.5706   -2.9762   -3.5039 O.2       1 <0>        -0.5137
     23 C15        -1.6124   -4.9620   -4.7792 C.3       1 <0>        -0.1269
     24 C16        -1.7876   -3.9884   -5.9463 C.3       1 <0>        -0.0991
     25 C17        -1.8904   -4.7626   -7.2352 C.2       1 <0>         0.4676
     26 O4         -1.8297   -5.9692   -7.2216 O.2       1 <0>        -0.5089
     27 O5         -2.0494   -4.1116   -8.3983 O.3       1 <0>        -0.3293
     28 C18        -2.1409   -4.9216   -9.5999 C.3       1 <0>         0.0468
     29 C19        -2.3158   -4.0246  -10.7982 C.2       1 <0>         0.5164
     30 O6         -2.3590   -2.8212  -10.6537 O.2       1 <0>        -0.5076
     31 N5         -2.4241   -4.5598  -12.0304 N.am      1 <0>        -0.7212
     32 C20        -2.5941   -3.6878  -13.1953 C.3       1 <0>         0.1703
     33 C21        -1.3943   -2.7449  -13.3060 C.3       1 <0>        -0.1662
     34 C22        -2.6905   -4.5413  -14.4615 C.3       1 <0>        -0.1563
     35 C23        -3.8750   -2.8666  -13.0351 C.3       1 <0>        -0.1666
     36 H2         -2.9427  -11.0013   -3.2439 H         1 <0>         0.0540
     37 H3         -2.9890  -10.9987   -1.4645 H         1 <0>         0.0527
     38 H4         -4.4948  -11.1921   -2.3937 H         1 <0>         0.0537
     39 H5         -4.2894   -8.8877   -1.5015 H         1 <0>         0.0608
     40 H6         -4.2431   -8.8903   -3.2808 H         1 <0>         0.0624
     41 H7         -1.7660   -8.7975   -3.2165 H         1 <0>         0.0652
     42 H8         -1.8123   -8.7949   -1.4371 H         1 <0>         0.0617
     43 H9         -3.1127   -6.6839   -1.4741 H         1 <0>         0.0701
     44 H10        -3.0664   -6.6865   -3.2534 H         1 <0>         0.0700
     45 H11        -0.5893   -6.5936   -3.1890 H         1 <0>         0.0858
     46 H12        -0.6356   -6.5910   -1.4097 H         1 <0>         0.0797
     47 H13         0.9320   -2.3186    2.2382 H         1 <0>         0.1132
     48 H14         1.8254   -3.3102    1.0606 H         1 <0>         0.0912
     49 H15         0.9581   -5.3692    2.1363 H         1 <0>         0.0683
     50 H16         0.0647   -4.3776    3.3139 H         1 <0>         0.0778
     51 H17         3.0924   -4.3849    2.9267 H         1 <0>         0.0653
     52 H18         2.1990   -3.3933    4.1043 H         1 <0>         0.0696
     53 H19         1.3317   -5.4523    5.1800 H         1 <0>         0.0564
     54 H20         2.2251   -6.4439    4.0024 H         1 <0>         0.0543
     55 H21         3.1115   -5.4368    5.1721 H         1 <0>         0.0587
     56 H22         1.7470   -4.5736   -0.2019 H         1 <0>         0.4084
     57 H23         0.9495   -5.1978   -1.5424 H         1 <0>         0.4237
     58 H24        -0.7035   -5.5455   -4.9260 H         1 <0>         0.1038
     59 H25        -2.4708   -5.6322   -4.7330 H         1 <0>         0.1084
     60 H26        -2.6966   -3.4050   -5.7995 H         1 <0>         0.1188
     61 H27        -0.9292   -3.3183   -5.9925 H         1 <0>         0.1170
     62 H28        -1.2283   -5.5066   -9.7140 H         1 <0>         0.1018
     63 H29        -2.9956   -5.5934   -9.5210 H         1 <0>         0.1021
     64 H30        -2.3895   -5.5223  -12.1459 H         1 <0>         0.4014
     65 H31        -0.4817   -3.3299  -13.4202 H         1 <0>         0.0550
     66 H32        -1.5208   -2.0961  -14.1727 H         1 <0>         0.0658
     67 H33        -1.3256   -2.1369  -12.4040 H         1 <0>         0.0786
     68 H34        -3.5453   -5.2131  -14.3826 H         1 <0>         0.0633
     69 H35        -2.8170   -3.8926  -15.3282 H         1 <0>         0.0764
     70 H36        -1.7779   -5.1264  -14.5756 H         1 <0>         0.0632
     71 H37        -3.8063   -2.2586  -12.1330 H         1 <0>         0.0788
     72 H38        -4.0015   -2.2179  -13.9018 H         1 <0>         0.0659
     73 H39        -4.7298   -3.5384  -12.9562 H         1 <0>         0.0552
@<TRIPOS>BOND
     1    1    2 1
     2    1   36 1
     3    1   37 1
     4    1   38 1
     5    2    3 1
     6    2   39 1
     7    2   40 1
     8    3    4 1
     9    3   41 1
    10    3   42 1
    11    4    5 1
    12    4   43 1
    13    4   44 1
    14    5    6 1
    15    5   45 1
    16    5   46 1
    17    6    7 1
    18    6   21 am
    19    7   14 1
    20    7    8 2
    21    8    9 1
    22    8   20 1
    23    9   10 am
    24    9   16 1
    25   10   11 2
    26   10   12 am
    27   12   13 1
    28   12   14 am
    29   14   15 2
    30   16   17 1
    31   16   47 1
    32   16   48 1
    33   17   18 1
    34   17   49 1
    35   17   50 1
    36   18   19 1
    37   18   51 1
    38   18   52 1
    39   19   53 1
    40   19   54 1
    41   19   55 1
    42   20   56 1
    43   20   57 1
    44   21   22 2
    45   21   23 1
    46   23   24 1
    47   23   58 1
    48   23   59 1
    49   24   25 1
    50   24   60 1
    51   24   61 1
    52   25   26 2
    53   25   27 1
    54   27   28 1
    55   28   29 1
    56   28   62 1
    57   28   63 1
    58   29   30 2
    59   29   31 am
    60   31   32 1
    61   31   64 1
    62   32   33 1
    63   32   34 1
    64   32   35 1
    65   33   65 1
    66   33   66 1
    67   33   67 1
    68   34   68 1
    69   34   69 1
    70   34   70 1
    71   35   71 1
    72   35   72 1
    73   35   73 1
@<TRIPOS>MOLECULE
ZINC16320875
   43    44     0     0     0
SMALL
USER_CHARGES
N-[[4-(acetylcarbamothioylamino)phenyl]carbamothioyl]-2-chloro-5-nitro-benzamide
@<TRIPOS>ATOM
      1 C1          1.7136   -3.6708   -0.3169 C.3       1 <0>        -0.1663
      2 C2          0.5561   -2.7097   -0.2291 C.2       1 <0>         0.4826
      3 O1         -0.5774   -3.1098   -0.3878 O.2       1 <0>        -0.4104
      4 N1          0.7809   -1.4055    0.0258 N.am      1 <0>        -0.6434
      5 C3         -0.2543   -0.5460    0.1043 C.2       1 <0>         0.5079
      6 S1         -1.8548   -1.1109   -0.1198 S.2       1 <0>        -0.4859
      7 N2         -0.0294    0.7582    0.3592 N.pl3     1 <0>        -0.6217
      8 C4         -1.0961    1.6658    0.3588 C.ar      1 <0>         0.1262
      9 C5         -0.9676    2.8880   -0.2879 C.ar      1 <0>        -0.1140
     10 C6         -2.0212    3.7801   -0.2935 C.ar      1 <0>        -0.1125
     11 C7         -3.2054    3.4601    0.3577 C.ar      1 <0>         0.1221
     12 C8         -3.3317    2.2404    1.0096 C.ar      1 <0>        -0.0609
     13 C9         -2.2803    1.3458    1.0100 C.ar      1 <0>        -0.0606
     14 N3         -4.2724    4.3673    0.3565 N.pl3     1 <0>        -0.6172
     15 C10        -4.9405    4.6233    1.4987 C.2       1 <0>         0.5083
     16 S2         -4.5565    3.7607    2.9267 S.2       1 <0>        -0.4672
     17 N4         -5.9110    5.5584    1.5166 N.am      1 <0>        -0.6401
     18 C11        -6.5790    5.8145    2.6588 C.2       1 <0>         0.5333
     19 O2         -6.3064    5.2021    3.6726 O.2       1 <0>        -0.3670
     20 C12        -7.6425    6.8392    2.6784 C.ar      1 <0>        -0.1296
     21 C13        -7.9546    7.5489    1.5167 C.ar      1 <0>        -0.0158
     22 C14        -8.9518    8.5008    1.5408 C.ar      1 <0>        -0.0473
     23 C15        -9.6369    8.7616    2.7151 C.ar      1 <0>        -0.0140
     24 C16        -9.3306    8.0673    3.8710 C.ar      1 <0>        -0.1103
     25 C17        -8.3372    7.1073    3.8608 C.ar      1 <0>         0.0580
     26 Cl1        -7.9536    6.2362    5.3125 Cl        1 <0>         0.0162
     27 N5         -9.2869    9.2500    0.3090 N.pl3     1 <0>         0.0257
     28 O3        -10.1644   10.0945    0.3294 O.2       1 <0>        -0.1408
     29 O4         -8.6853    9.0218   -0.7252 O.3       1 <0>        -0.1519
     30 H1          2.6463   -3.1326   -0.1482 H         1 <0>         0.0778
     31 H2          1.5998   -4.4467    0.4402 H         1 <0>         0.1054
     32 H3          1.7318   -4.1282   -1.3061 H         1 <0>         0.1052
     33 H4          1.6877   -1.0855    0.1528 H         1 <0>         0.4112
     34 H5          0.8706    1.0676    0.5468 H         1 <0>         0.4082
     35 H6         -0.0452    3.1387   -0.7905 H         1 <0>         0.1314
     36 H7         -1.9230    4.7286   -0.8005 H         1 <0>         0.1317
     37 H8         -4.2526    1.9916    1.5160 H         1 <0>         0.1515
     38 H9         -2.3788    0.3970    1.5164 H         1 <0>         0.1517
     39 H10        -4.5306    4.8113   -0.4664 H         1 <0>         0.4095
     40 H11        -6.1285    6.0472    0.7075 H         1 <0>         0.4091
     41 H12        -7.4185    7.3499    0.6005 H         1 <0>         0.1603
     42 H13       -10.4142    9.5114    2.7286 H         1 <0>         0.1725
     43 H14        -9.8689    8.2761    4.7837 H         1 <0>         0.1710
@<TRIPOS>BOND
     1    1    2 1
     2    1   30 1
     3    1   31 1
     4    1   32 1
     5    2    3 2
     6    2    4 am
     7    4    5 1
     8    4   33 1
     9    5    6 2
    10    5    7 1
    11    7    8 1
    12    7   34 1
    13    8   13 ar
    14    8    9 ar
    15    9   10 ar
    16    9   35 1
    17   10   11 ar
    18   10   36 1
    19   11   12 ar
    20   11   14 1
    21   12   13 ar
    22   12   37 1
    23   13   38 1
    24   14   15 1
    25   14   39 1
    26   15   16 2
    27   15   17 1
    28   17   18 am
    29   17   40 1
    30   18   19 2
    31   18   20 1
    32   20   25 ar
    33   20   21 ar
    34   21   22 ar
    35   21   41 1
    36   22   23 ar
    37   22   27 1
    38   23   24 ar
    39   23   42 1
    40   24   25 ar
    41   24   43 1
    42   25   26 1
    43   27   28 2
    44   27   29 1
@<TRIPOS>MOLECULE
ZINC08877521
   63    65     0     0     0
SMALL
USER_CHARGES

@<TRIPOS>ATOM
      1 C1         -0.0184    1.5028    0.0103 C.3       1 <0>        -0.1264
      2 C2          0.0021   -0.0041    0.0020 C.ar      1 <0>         0.0255
      3 C3          0.0056   -0.6750   -1.1867 C.ar      1 <0>        -0.1547
      4 C4          0.0244   -2.0674   -1.2130 C.ar      1 <0>         0.1863
      5 C5          0.0403   -2.7905   -0.0088 C.ar      1 <0>        -0.1433
      6 C6          0.0594   -4.2525   -0.0561 C.2       1 <0>         0.0501
      7 C7          0.0609   -4.8561   -1.2739 C.2       1 <0>        -0.2127
      8 C8          0.0444   -4.0694   -2.4435 C.2       1 <0>         0.5217
      9 O1          0.0455   -4.6208   -3.5297 O.2       1 <0>        -0.4590
     10 O2          0.0270   -2.7290   -2.3908 O.3       1 <0>        -0.2598
     11 C9          0.0808   -6.3597   -1.3733 C.3       1 <0>        -0.0817
     12 C10        -1.3287   -6.8719   -1.5223 C.2       1 <0>         0.5231
     13 O3         -2.2578   -6.0927   -1.5455 O.2       1 <0>        -0.5303
     14 N1         -1.5567   -8.1959   -1.6298 N.am      1 <0>        -0.7202
     15 C11        -2.9268   -8.6938   -1.7746 C.3       1 <0>         0.1022
     16 C12        -2.9070  -10.1974   -1.8740 C.2       1 <0>         0.5153
     17 O4         -1.8522  -10.7943   -1.8284 O.2       1 <0>        -0.5350
     18 N2         -4.0614  -10.8788   -2.0137 N.am      1 <0>        -0.7143
     19 C13        -4.0421  -12.3405   -2.1103 C.3       1 <0>         0.1006
     20 C14        -5.4516  -12.8527   -2.2593 C.2       1 <0>         0.5090
     21 O5         -6.3807  -12.0735   -2.2825 O.2       1 <0>        -0.5357
     22 N3         -5.6796  -14.1767   -2.3668 N.am      1 <0>        -0.7196
     23 C15        -7.0497  -14.6746   -2.5117 C.3       1 <0>         0.0856
     24 C16        -7.0296  -16.2012   -2.6126 C.3       1 <0>         0.0907
     25 H1         -6.3693  -16.5029   -3.4256 H         1 <0>         0.1075
     26 C17        -8.4449  -16.7127   -2.8885 C.3       1 <0>        -0.1847
     27 O6         -6.5546  -16.7536   -1.3833 O.3       1 <0>        -0.5605
     28 C18         0.0773   -5.0674    1.2114 C.3       1 <0>        -0.1318
     29 C19         0.0372   -2.1056    1.2183 C.ar      1 <0>         0.1144
     30 C20         0.0231   -0.7043    1.2117 C.ar      1 <0>        -0.1481
     31 C21         0.0311   -0.3060    2.6249 C.2       1 <0>        -0.1596
     32 C22         0.0538   -1.4435    3.3328 C.2       1 <0>         0.0206
     33 O7          0.0487   -2.5021    2.5041 O.3       1 <0>        -0.1771
     34 C23         0.0694   -1.5244    4.8376 C.3       1 <0>        -0.0793
     35 C24         0.0172    1.0991    3.1695 C.3       1 <0>        -0.0884
     36 H2          1.0042    1.8801    0.0026 H         1 <0>         0.0844
     37 H3         -0.5455    1.8639   -0.8728 H         1 <0>         0.0786
     38 H4         -0.5286    1.8543    0.9071 H         1 <0>         0.0806
     39 H5         -0.0066   -0.1218   -2.1142 H         1 <0>         0.1526
     40 H6          0.6696   -6.6588   -2.2404 H         1 <0>         0.1171
     41 H7          0.5257   -6.7777   -0.4702 H         1 <0>         0.1147
     42 H8         -0.8136   -8.8191   -1.6112 H         1 <0>         0.4134
     43 H9         -3.5157   -8.3948   -0.9075 H         1 <0>         0.1029
     44 H10        -3.3717   -8.2758   -2.6776 H         1 <0>         0.1034
     45 H11        -4.9050  -10.4014   -2.0502 H         1 <0>         0.4164
     46 H12        -3.4533  -12.6396   -2.9774 H         1 <0>         0.1037
     47 H13        -3.5972  -12.7585   -1.2073 H         1 <0>         0.1040
     48 H14        -4.9365  -14.7999   -2.3483 H         1 <0>         0.4092
     49 H15        -7.6386  -14.3755   -1.6445 H         1 <0>         0.0742
     50 H16        -7.4947  -14.2566   -3.4147 H         1 <0>         0.0807
     51 H17        -8.8072  -16.2914   -3.8262 H         1 <0>         0.0712
     52 H18        -8.4306  -17.8003   -2.9604 H         1 <0>         0.0723
     53 H19        -9.1052  -16.4110   -2.0754 H         1 <0>         0.0634
     54 H20        -7.0953  -16.5255   -0.6147 H         1 <0>         0.3791
     55 H21        -0.9459   -5.2775    1.5228 H         1 <0>         0.0929
     56 H22         0.6026   -6.0057    1.0327 H         1 <0>         0.0858
     57 H23         0.5882   -4.5086    1.9955 H         1 <0>         0.0870
     58 H24        -0.9544   -1.5582    5.2102 H         1 <0>         0.0875
     59 H25         0.5988   -2.4253    5.1475 H         1 <0>         0.0811
     60 H26         0.5749   -0.6481    5.2433 H         1 <0>         0.0941
     61 H27        -1.0137    1.4239    3.3105 H         1 <0>         0.0734
     62 H28         0.5399    1.1233    4.1257 H         1 <0>         0.0715
     63 H29         0.5153    1.7663    2.4661 H         1 <0>         0.0743
@<TRIPOS>BOND
     1    1    2 1
     2    1   36 1
     3    1   37 1
     4    1   38 1
     5    2   30 ar
     6    2    3 ar
     7    3    4 ar
     8    3   39 1
     9    4   10 1
    10    4    5 ar
    11    5    6 1
    12    5   29 ar
    13    6    7 2
    14    6   28 1
    15    7    8 1
    16    7   11 1
    17    8    9 2
    18    8   10 1
    19   11   12 1
    20   11   40 1
    21   11   41 1
    22   12   13 2
    23   12   14 am
    24   14   15 1
    25   14   42 1
    26   15   16 1
    27   15   43 1
    28   15   44 1
    29   16   17 2
    30   16   18 am
    31   18   19 1
    32   18   45 1
    33   19   20 1
    34   19   46 1
    35   19   47 1
    36   20   21 2
    37   20   22 am
    38   22   23 1
    39   22   48 1
    40   23   24 1
    41   23   49 1
    42   23   50 1
    43   24   25 1
    44   24   26 1
    45   24   27 1
    46   26   51 1
    47   26   52 1
    48   26   53 1
    49   27   54 1
    50   28   55 1
    51   28   56 1
    52   28   57 1
    53   29   33 1
    54   29   30 ar
    55   30   31 1
    56   31   32 2
    57   31   35 1
    58   32   33 1
    59   32   34 1
    60   34   58 1
    61   34   59 1
    62   34   60 1
    63   35   61 1
    64   35   62 1
    65   35   63 1
@<TRIPOS>MOLECULE
ZINC20292833
   53    55     0     0     0
SMALL
USER_CHARGES

@<TRIPOS>ATOM
      1 C1         -0.0169    1.4263    0.0972 C.3       1 <0>         0.0237
      2 O1          0.0027   -0.0025    0.0828 O.3       1 <0>        -0.3042
      3 C2         -1.2002   -0.6363    0.0809 C.ar      1 <0>         0.1194
      4 C3         -2.3727    0.1050    0.0870 C.ar      1 <0>        -0.1787
      5 C4         -3.5956   -0.5326    0.0851 C.ar      1 <0>        -0.0691
      6 C5         -3.6553   -1.9286    0.0771 C.ar      1 <0>        -0.0536
      7 C6         -2.4739   -2.6748    0.0711 C.ar      1 <0>        -0.1438
      8 C7         -1.2520   -2.0282    0.0672 C.ar      1 <0>         0.0955
      9 O2         -0.1002   -2.7513    0.0557 O.3       1 <0>        -0.3047
     10 C8         -0.2278   -4.1745    0.0420 C.3       1 <0>         0.0244
     11 C9         -4.9612   -2.6124    0.0756 C.2       1 <0>         0.1105
     12 N1         -6.0582   -1.9172    0.0817 N.2       1 <0>        -0.2052
     13 N2         -7.2993   -2.5671    0.0802 N.pl3     1 <0>        -0.5441
     14 C10        -8.4712   -1.8245    0.0867 C.2       1 <0>         0.5319
     15 N3         -8.5543   -0.5161    0.0887 N.2       1 <0>        -0.3177
     16 N4         -9.9116   -0.1687    0.0951 N.2       1 <0>        -0.2936
     17 C11       -10.6135   -1.2767    0.0968 C.2       1 <0>         0.1517
     18 N5         -9.7421   -2.3286    0.0862 N.pl3     1 <0>        -0.3460
     19 N6        -10.0810   -3.6519    0.0788 N.3       1 <0>        -0.5943
     20 S1        -12.3720   -1.3886    0.1049 S.3       1 <0>         0.0759
     21 C12       -12.9217    0.3400    0.1092 C.3       1 <0>        -0.1421
     22 C13       -14.4279    0.3881    0.1162 C.2       1 <0>         0.5380
     23 O3        -15.0676   -0.6423    0.1182 O.2       1 <0>        -0.4955
     24 N7        -15.0642    1.5762    0.1204 N.am      1 <0>        -0.6635
     25 C14       -16.4597    1.6229    0.0293 C.ar      1 <0>         0.1465
     26 C15       -17.0775    2.6522   -0.6693 C.ar      1 <0>        -0.0901
     27 C16       -18.4549    2.6954   -0.7573 C.ar      1 <0>        -0.0953
     28 C17       -19.2192    1.7151   -0.1509 C.ar      1 <0>        -0.0674
     29 C18       -18.6073    0.6894    0.5456 C.ar      1 <0>        -0.0296
     30 C19       -17.2296    0.6371    0.6321 C.ar      1 <0>        -0.0623
     31 N8        -19.4290   -0.3571    1.1939 N.pl3     1 <0>         0.0315
     32 O4        -20.6346   -0.3147    1.1143 O.2       1 <0>        -0.1531
     33 O5        -18.8946   -1.2543    1.8031 O.3       1 <0>        -0.1501
     34 H1          1.0057    1.8037    0.0971 H         1 <0>         0.1026
     35 H2         -0.5389    1.7915   -0.7873 H         1 <0>         0.0576
     36 H3         -0.5324    1.7737    0.9926 H         1 <0>         0.0577
     37 H4         -2.3278    1.1840    0.0935 H         1 <0>         0.1410
     38 H5         -4.5069    0.0470    0.0902 H         1 <0>         0.1423
     39 H6         -2.5153   -3.7540    0.0649 H         1 <0>         0.1412
     40 H7          0.7633   -4.6281    0.0338 H         1 <0>         0.1020
     41 H8         -0.7688   -4.4994    0.9308 H         1 <0>         0.0558
     42 H9         -0.7754   -4.4816   -0.8491 H         1 <0>         0.0559
     43 H10        -5.0058   -3.6914    0.0694 H         1 <0>         0.1226
     44 H11        -7.3393   -3.5363    0.0747 H         1 <0>         0.4040
     45 H12       -10.1688   -4.0079    1.0189 H         1 <0>         0.3642
     46 H13       -10.9286   -3.8052   -0.4466 H         1 <0>         0.3799
     47 H14       -12.5380    0.8411    0.9979 H         1 <0>         0.1365
     48 H15       -12.5463    0.8429   -0.7821 H         1 <0>         0.1368
     49 H16       -14.5547    2.3990    0.1866 H         1 <0>         0.4234
     50 H17       -16.4813    3.4182   -1.1427 H         1 <0>         0.1492
     51 H18       -18.9359    3.4957   -1.3000 H         1 <0>         0.1554
     52 H19       -20.2963    1.7511   -0.2212 H         1 <0>         0.1572
     53 H20       -16.7520   -0.1672    1.1720 H         1 <0>         0.1698
@<TRIPOS>BOND
     1    1    2 1
     2    1   34 1
     3    1   35 1
     4    1   36 1
     5    2    3 1
     6    3    8 ar
     7    3    4 ar
     8    4    5 ar
     9    4   37 1
    10    5    6 ar
    11    5   38 1
    12    6    7 ar
    13    6   11 1
    14    7    8 ar
    15    7   39 1
    16    8    9 1
    17    9   10 1
    18   10   40 1
    19   10   41 1
    20   10   42 1
    21   11   12 2
    22   11   43 1
    23   12   13 1
    24   13   14 1
    25   13   44 1
    26   14   18 1
    27   14   15 2
    28   15   16 1
    29   16   17 2
    30   17   18 1
    31   17   20 1
    32   18   19 1
    33   19   45 1
    34   19   46 1
    35   20   21 1
    36   21   22 1
    37   21   47 1
    38   21   48 1
    39   22   23 2
    40   22   24 am
    41   24   25 1
    42   24   49 1
    43   25   30 ar
    44   25   26 ar
    45   26   27 ar
    46   26   50 1
    47   27   28 ar
    48   27   51 1
    49   28   29 ar
    50   28   52 1
    51   29   30 ar
    52   29   31 1
    53   30   53 1
    54   31   32 2
    55   31   33 1
@<TRIPOS>MOLECULE
ZINC15023714
   55    57     0     0     0
SMALL
USER_CHARGES

@<TRIPOS>ATOM
      1 C1          3.5546   -3.8939   -1.8206 C.3       1 <0>         0.0233
      2 O1          2.3467   -3.4491   -1.2000 O.3       1 <0>        -0.2979
      3 C2          1.8054   -2.2903   -1.6625 C.ar      1 <0>         0.1576
      4 C3          2.4214   -1.6000   -2.6954 C.ar      1 <0>        -0.2146
      5 C4          1.8720   -0.4221   -3.1661 C.ar      1 <0>        -0.0006
      6 C5          0.7072    0.0725   -2.6098 C.ar      1 <0>        -0.1825
      7 C6          0.0851   -0.6118   -1.5766 C.ar      1 <0>         0.1567
      8 C7          0.6311   -1.7994   -1.1043 C.ar      1 <0>         0.0434
      9 O2          0.0205   -2.4769   -0.0942 O.3       1 <0>        -0.3124
     10 C8          0.4094   -2.1422    1.2395 C.3       1 <0>         0.0352
     11 O3         -1.0606   -0.1242   -1.0297 O.3       1 <0>        -0.2992
     12 C9         -1.5676    1.0983   -1.5686 C.3       1 <0>         0.0214
     13 C10         2.5450    0.3251   -4.2885 C.3       1 <0>         0.0152
     14 H1          2.8726    1.3368   -4.0491 H         1 <0>         0.1643
     15 C11         3.4085   -0.4851   -5.2570 C.3       1 <0>        -0.0319
     16 C12         2.0433    0.0640   -5.7104 C.3       1 <0>         0.0091
     17 C13         1.2228   -1.2121   -5.9724 C.3       1 <0>         0.2047
     18 N1          2.0978   -2.3433   -5.6687 N.2       1 <0>        -0.5431
     19 C14         3.2644   -1.9854   -5.2865 C.2       1 <0>         0.4665
     20 N2          4.2622   -2.8602   -4.9460 N.pl3     1 <0>        -0.8195
     21 S1         -0.2340   -1.2464   -4.8920 S.3       1 <0>        -0.1311
     22 C15        -0.9832   -2.8662   -5.2169 C.3       1 <0>        -0.1023
     23 C16        -2.1642   -3.0814   -4.2683 C.3       1 <0>         0.0965
     24 O4         -2.7544   -4.3574   -4.5242 O.3       1 <0>        -0.5684
     25 S2          0.7089   -1.2738   -7.7110 S.3       1 <0>        -0.1889
     26 C17         1.0522   -2.9838   -8.2096 C.3       1 <0>        -0.0808
     27 C18         0.7716   -3.1451   -9.7050 C.3       1 <0>         0.0910
     28 O5          1.0420   -4.4922  -10.0978 O.3       1 <0>        -0.5674
     29 C19         1.9146    1.1824   -6.6588 C.1       1 <0>         0.2375
     30 N3          1.8152    2.0455   -7.3907 N.1       1 <0>        -0.3574
     31 C20         4.6795    0.0828   -5.7354 C.1       1 <0>         0.2268
     32 N4          5.6604    0.5210   -6.1046 N.1       1 <0>        -0.3630
     33 H2          3.3783   -4.0568   -2.8838 H         1 <0>         0.0575
     34 H3          4.3288   -3.1374   -1.6925 H         1 <0>         0.0556
     35 H4          3.8782   -4.8267   -1.3588 H         1 <0>         0.1034
     36 H5          3.3317   -1.9829   -3.1324 H         1 <0>         0.1382
     37 H6          0.2813    0.9933   -2.9802 H         1 <0>         0.1396
     38 H7         -0.1517   -2.7539    1.9459 H         1 <0>         0.0927
     39 H8          1.4760   -2.3287    1.3646 H         1 <0>         0.0445
     40 H9          0.2005   -1.0886    1.4253 H         1 <0>         0.0452
     41 H10        -1.7823    0.9665   -2.6290 H         1 <0>         0.0613
     42 H11        -2.4824    1.3748   -1.0443 H         1 <0>         0.1034
     43 H12        -0.8249    1.8862   -1.4434 H         1 <0>         0.0581
     44 H13         5.1271   -2.5236   -4.6641 H         1 <0>         0.4167
     45 H14         4.1038   -3.8163   -4.9869 H         1 <0>         0.4211
     46 H15        -1.3340   -2.9040   -6.2482 H         1 <0>         0.0918
     47 H16        -0.2412   -3.6485   -5.0566 H         1 <0>         0.0980
     48 H17        -1.8134   -3.0436   -3.2370 H         1 <0>         0.0583
     49 H18        -2.9061   -2.2992   -4.4286 H         1 <0>         0.0517
     50 H19        -3.5111   -4.5615   -3.9578 H         1 <0>         0.3858
     51 H20         2.0976   -3.2180   -8.0088 H         1 <0>         0.0961
     52 H21         0.4129   -3.6623   -7.6448 H         1 <0>         0.0966
     53 H22        -0.2738   -2.9109   -9.9059 H         1 <0>         0.0559
     54 H23         1.4109   -2.4666  -10.2699 H         1 <0>         0.0537
     55 H24         0.8856   -4.6673  -11.0359 H         1 <0>         0.3867
@<TRIPOS>BOND
     1    1    2 1
     2    1   33 1
     3    1   34 1
     4    1   35 1
     5    2    3 1
     6    3    8 ar
     7    3    4 ar
     8    4    5 ar
     9    4   36 1
    10    5    6 ar
    11    5   13 1
    12    6    7 ar
    13    6   37 1
    14    7    8 ar
    15    7   11 1
    16    8    9 1
    17    9   10 1
    18   10   38 1
    19   10   39 1
    20   10   40 1
    21   11   12 1
    22   12   41 1
    23   12   42 1
    24   12   43 1
    25   13   14 1
    26   13   16 1
    27   13   15 1
    28   15   19 1
    29   15   16 1
    30   15   31 1
    31   16   17 1
    32   16   29 1
    33   17   18 1
    34   17   21 1
    35   17   25 1
    36   18   19 2
    37   19   20 1
    38   20   44 1
    39   20   45 1
    40   21   22 1
    41   22   23 1
    42   22   46 1
    43   22   47 1
    44   23   24 1
    45   23   48 1
    46   23   49 1
    47   24   50 1
    48   25   26 1
    49   26   27 1
    50   26   51 1
    51   26   52 1
    52   27   28 1
    53   27   53 1
    54   27   54 1
    55   28   55 1
    56   29   30 3
    57   31   32 3
@<TRIPOS>MOLECULE
ZINC17216047
   47    47     0     0     0
SMALL
USER_CHARGES
dimethyl (2E,3R)-2-(aminocarbamothioylhydrazono)-3-[2-oxo-2-[[3-(trifluoromethyl)phenyl]amino]acetyl]butanedioate
@<TRIPOS>ATOM
      1 C1          2.2106    2.9745   -4.0333 C.3       1 <0>         0.0358
      2 O1          2.1671    2.8499   -2.5873 O.3       1 <0>        -0.3499
      3 C2          1.1644    2.1241   -2.0681 C.2       1 <0>         0.4899
      4 O2          0.4045    1.5340   -2.7989 O.2       1 <0>        -0.4602
      5 C3          0.9866    2.0453   -0.5737 C.3       1 <0>        -0.0831
      6 H1          0.9449    2.9694   -0.1938 H         1 <0>         0.1363
      7 C4          2.1510    1.3051    0.0324 C.2       1 <0>         0.0816
      8 N1          2.8112    1.8302    1.0243 N.2       1 <0>        -0.1162
      9 N2          2.3646    3.0218    1.6102 N.pl3     1 <0>        -0.5325
     10 C5          3.1055    3.6241    2.5614 C.2       1 <0>         0.5845
     11 S1          2.4997    5.0052    3.3717 S.2       1 <0>        -0.5652
     12 N3          4.3233    3.1390    2.8747 N.pl3     1 <0>        -0.4928
     13 N4          4.8066    2.0371    2.2282 N.3       1 <0>        -0.5942
     14 C6          2.5399   -0.0046   -0.4941 C.2       1 <0>         0.5274
     15 O3          1.9234   -0.4950   -1.4205 O.2       1 <0>        -0.4604
     16 O4          3.5821   -0.6672    0.0483 O.3       1 <0>        -0.3303
     17 C7          3.9112   -1.9603   -0.5242 C.3       1 <0>         0.0344
     18 C8         -0.2927    1.3142   -0.2579 C.2       1 <0>         0.3714
     19 O5         -0.2698    0.1286   -0.0280 O.2       1 <0>        -0.3563
     20 C9         -1.5864    2.0524   -0.2353 C.2       1 <0>         0.4923
     21 O6         -1.6094    3.2440   -0.4664 O.2       1 <0>        -0.4774
     22 N5         -2.7313    1.3975    0.0417 N.am      1 <0>        -0.6398
     23 C10        -3.9546    2.0679   -0.0307 C.ar      1 <0>         0.1325
     24 C11        -4.0432    3.3991    0.3583 C.ar      1 <0>        -0.0836
     25 C12        -5.2528    4.0602    0.2804 C.ar      1 <0>        -0.0983
     26 C13        -6.3778    3.3962   -0.1743 C.ar      1 <0>        -0.0753
     27 C14        -6.2944    2.0700   -0.5568 C.ar      1 <0>        -0.1645
     28 C15        -5.0866    1.4039   -0.4864 C.ar      1 <0>        -0.0868
     29 C16        -7.5231    1.3504   -1.0505 C.3       1 <0>         0.5103
     30 F1         -8.1808    0.7548    0.0310 F         1 <0>        -0.1739
     31 F2         -8.3807    2.2645   -1.6718 F         1 <0>        -0.1736
     32 F3         -7.1482    0.3640   -1.9690 F         1 <0>        -0.1754
     33 H2          1.2594    3.3671   -4.3929 H         1 <0>         0.0716
     34 H3          3.0143    3.6547   -4.3154 H         1 <0>         0.1108
     35 H4          2.3906    1.9954   -4.4771 H         1 <0>         0.0708
     36 H5          1.5221    3.4134    1.3314 H         1 <0>         0.4235
     37 H6          4.8566    3.5725    3.5593 H         1 <0>         0.4372
     38 H7          4.8160    2.1790    1.2293 H         1 <0>         0.3571
     39 H8          5.7250    1.7927    2.5673 H         1 <0>         0.3674
     40 H9          4.1585   -1.8385   -1.5787 H         1 <0>         0.0681
     41 H10         4.7660   -2.3841    0.0029 H         1 <0>         0.1106
     42 H11         3.0560   -2.6291   -0.4264 H         1 <0>         0.0700
     43 H12        -2.7058    0.4605    0.2913 H         1 <0>         0.4256
     44 H13        -3.1661    3.9170    0.7172 H         1 <0>         0.1502
     45 H14        -5.3216    5.0960    0.5787 H         1 <0>         0.1451
     46 H15        -7.3236    3.9146   -0.2303 H         1 <0>         0.1420
     47 H16        -5.0221    0.3682   -0.7857 H         1 <0>         0.1434
@<TRIPOS>BOND
     1    1    2 1
     2    1   33 1
     3    1   34 1
     4    1   35 1
     5    2    3 1
     6    3    4 2
     7    3    5 1
     8    5    6 1
     9    5    7 1
    10    5   18 1
    11    7    8 2
    12    7   14 1
    13    8    9 1
    14    9   10 1
    15    9   36 1
    16   10   11 2
    17   10   12 1
    18   12   13 1
    19   12   37 1
    20   13   38 1
    21   13   39 1
    22   14   15 2
    23   14   16 1
    24   16   17 1
    25   17   40 1
    26   17   41 1
    27   17   42 1
    28   18   19 2
    29   18   20 1
    30   20   21 2
    31   20   22 am
    32   22   23 1
    33   22   43 1
    34   23   28 ar
    35   23   24 ar
    36   24   25 ar
    37   24   44 1
    38   25   26 ar
    39   25   45 1
    40   26   27 ar
    41   26   46 1
    42   27   28 ar
    43   27   29 1
    44   28   47 1
    45   29   30 1
    46   29   31 1
    47   29   32 1
@<TRIPOS>MOLECULE
ZINC20905183
   63    65     0     0     0
SMALL
USER_CHARGES
N-(2-acetamidophenyl)-3-[[5-[(N'E)-N'-[(1-isopropyl-3,5-dimethyl-pyrazol-4-yl)methylene]hydrazino]-4H-1,2,4-triazol-3-yl]sulfanyl]propanamide
@<TRIPOS>ATOM
      1 C1        -14.0536    8.6140    0.0968 C.3       1 <0>        -0.0875
      2 C2        -14.7265    9.9578    0.2081 C.2       1 <0>         0.1156
      3 C3        -14.0744   11.2016    0.3485 C.2       1 <0>        -0.2179
      4 C4        -15.0516   12.1704    0.4191 C.2       1 <0>         0.1285
      5 N1        -16.2439   11.5485    0.3174 N.pl3     1 <0>        -0.3526
      6 N2        -16.0143   10.1737    0.1906 N.2       1 <0>        -0.2935
      7 C5        -17.5558   12.2001    0.3415 C.3       1 <0>         0.1524
      8 C6        -18.2958   11.9051   -0.9647 C.3       1 <0>        -0.1637
      9 C7        -18.3697   11.6643    1.5210 C.3       1 <0>        -0.1639
     10 C8        -14.8290   13.6525    0.5776 C.3       1 <0>        -0.1050
     11 C9        -12.6164   11.4228    0.4141 C.2       1 <0>         0.1766
     12 N3        -11.8032   10.4143    0.3404 N.2       1 <0>        -0.2692
     13 N4        -10.4194   10.6242    0.4026 N.pl3     1 <0>        -0.5621
     14 C10        -9.5500    9.5461    0.3237 C.2       1 <0>         0.5438
     15 N5         -8.1850    9.6092    0.3711 N.2       1 <0>        -0.5574
     16 C11        -7.6996    8.3368    0.2622 C.2       1 <0>         0.2235
     17 N6         -8.7206    7.5219    0.1465 N.2       1 <0>        -0.3198
     18 N7         -9.8930    8.2877    0.1912 N.pl3     1 <0>        -0.4771
     19 S1         -5.9997    7.8729    0.2685 S.3       1 <0>         0.0308
     20 C12        -6.0369    6.0679    0.0921 C.3       1 <0>        -0.1053
     21 C13        -4.6058    5.5268    0.0828 C.3       1 <0>        -0.1250
     22 C14        -4.6366    4.0273   -0.0638 C.2       1 <0>         0.5220
     23 O1         -5.6988    3.4482   -0.1521 O.2       1 <0>        -0.5131
     24 N8         -3.4840    3.3295   -0.0968 N.am      1 <0>        -0.6842
     25 C15        -3.5136    1.9298   -0.1388 C.ar      1 <0>         0.1230
     26 C16        -4.5223    1.2758   -0.8308 C.ar      1 <0>        -0.1063
     27 C17        -4.5492   -0.1053   -0.8713 C.ar      1 <0>        -0.1164
     28 C18        -3.5723   -0.8394   -0.2236 C.ar      1 <0>        -0.1157
     29 C19        -2.5609   -0.1962    0.4642 C.ar      1 <0>        -0.1077
     30 C20        -2.5289    1.1896    0.5146 C.ar      1 <0>         0.1229
     31 N9         -1.5072    1.8437    1.2148 N.am      1 <0>        -0.6871
     32 C21        -0.2652    1.3209    1.2390 C.2       1 <0>         0.5114
     33 O2         -0.0503    0.2442    0.7234 O.2       1 <0>        -0.5258
     34 C22         0.8578    2.0768    1.9011 C.3       1 <0>        -0.1760
     35 H1        -12.9624    8.7455    0.1424 H         1 <0>         0.0932
     36 H2        -14.3268    8.1453   -0.8601 H         1 <0>         0.0767
     37 H3        -14.3804    7.9704    0.9269 H         1 <0>         0.0767
     38 H4        -17.3795   13.2803    0.4514 H         1 <0>         0.1047
     39 H5        -19.2808   12.3944   -0.9466 H         1 <0>         0.0796
     40 H6        -18.4280   10.8185   -1.0739 H         1 <0>         0.0742
     41 H7        -17.7106   12.2903   -1.8127 H         1 <0>         0.0620
     42 H8        -19.3547   12.1535    1.5391 H         1 <0>         0.0796
     43 H9        -17.8376   11.8764    2.4601 H         1 <0>         0.0620
     44 H10       -18.5019   10.5777    1.4118 H         1 <0>         0.0741
     45 H11       -15.8001   14.1686    0.6020 H         1 <0>         0.0761
     46 H12       -14.2360   14.0269   -0.2698 H         1 <0>         0.0925
     47 H13       -14.2885   13.8437    1.5163 H         1 <0>         0.0925
     48 H14       -12.2193   12.4426    0.5255 H         1 <0>         0.1259
     49 H15       -10.0222   11.6439    0.5140 H         1 <0>         0.4333
     50 H16        -6.5896    5.6284    0.9355 H         1 <0>         0.1027
     51 H17        -6.5356    5.8019   -0.8516 H         1 <0>         0.1027
     52 H18        -4.0531    5.9664   -0.7606 H         1 <0>         0.1112
     53 H19        -4.1071    5.7928    1.0265 H         1 <0>         0.1112
     54 H20        -2.5200    3.8592   -0.0907 H         1 <0>         0.4309
     55 H21        -5.2863    1.8460   -1.3383 H         1 <0>         0.1419
     56 H22        -5.3353   -0.6129   -1.4106 H         1 <0>         0.1264
     57 H23        -3.5978   -1.9186   -0.2587 H         1 <0>         0.1264
     58 H24        -1.7975   -0.7725    0.9657 H         1 <0>         0.1411
     59 H25        -1.7185    2.7841    1.7449 H         1 <0>         0.4301
     60 H26         1.7884    1.4958    1.8206 H         1 <0>         0.0973
     61 H27         0.6163    2.2371    2.9622 H         1 <0>         0.0923
     62 H28         0.9885    3.0492    1.4038 H         1 <0>         0.0928
     63 H29       -10.9560    8.0102    0.1363 H         1 <0>         0.4721
@<TRIPOS>BOND
     1    1    2 1
     2    1   35 1
     3    1   36 1
     4    1   37 1
     5    2    6 2
     6    2    3 1
     7    3    4 2
     8    3   11 1
     9    4    5 1
    10    4   10 1
    11    5    6 1
    12    5    7 1
    13    7    8 1
    14    7    9 1
    15    7   38 1
    16    8   39 1
    17    8   40 1
    18    8   41 1
    19    9   42 1
    20    9   43 1
    21    9   44 1
    22   10   45 1
    23   10   46 1
    24   10   47 1
    25   11   12 2
    26   11   48 1
    27   12   13 1
    28   13   14 1
    29   13   49 1
    30   14   18 1
    31   14   15 2
    32   15   16 1
    33   16   17 2
    34   16   19 1
    35   17   18 1
    36   18   63 1
    37   19   20 1
    38   20   21 1
    39   20   50 1
    40   20   51 1
    41   21   22 1
    42   21   52 1
    43   21   53 1
    44   22   23 2
    45   22   24 am
    46   24   25 1
    47   24   54 1
    48   25   30 ar
    49   25   26 ar
    50   26   27 ar
    51   26   55 1
    52   27   28 ar
    53   27   56 1
    54   28   29 ar
    55   28   57 1
    56   29   30 ar
    57   29   58 1
    58   30   31 1
    59   31   32 am
    60   31   59 1
    61   32   33 2
    62   32   34 1
    63   34   60 1
    64   34   61 1
    65   34   62 1
@<TRIPOS>MOLECULE
ZINC21317265
   56    58     0     0     0
SMALL
USER_CHARGES
2-[[4-amino-5-[(N'E)-N'-[1-(3,4-dimethoxyphenyl)ethylidene]hydrazino]-1,2,4-triazol-3-yl]sulfanyl]-N-(3-nitrophenyl)acetamide
@<TRIPOS>ATOM
      1 C1        -16.3844    0.5583    1.0911 C.3       1 <0>        -0.1616
      2 C2        -15.6266   -0.7422    1.0156 C.2       1 <0>         0.1286
      3 N1        -14.3336   -0.7342    0.8958 N.2       1 <0>        -0.1984
      4 N2        -13.6430    0.4833    0.8368 N.pl3     1 <0>        -0.5597
      5 C3        -12.2616    0.4918    0.7088 C.2       1 <0>         0.4899
      6 N3        -11.4882   -0.5641    0.6332 N.2       1 <0>        -0.3145
      7 N4        -10.1644   -0.1229    0.5069 N.2       1 <0>        -0.3051
      8 C4        -10.1716    1.1887    0.5185 C.2       1 <0>         0.1720
      9 N5        -11.4676    1.6028    0.6398 N.pl3     1 <0>        -0.2620
     10 N6        -11.8955    2.8993    0.6840 N.3       1 <0>        -0.7778
     11 S1         -8.7582    2.2332    0.3921 S.3       1 <0>         0.0775
     12 C5         -7.3677    1.0758    0.2591 C.3       1 <0>        -0.1462
     13 C6         -6.0796    1.8494    0.1431 C.2       1 <0>         0.5393
     14 O1         -6.0978    3.0621    0.1496 O.2       1 <0>        -0.4996
     15 N7         -4.9074    1.1936    0.0323 N.am      1 <0>        -0.6788
     16 C7         -3.7036    1.9069    0.0358 C.ar      1 <0>         0.1578
     17 C8         -2.6260    1.4572   -0.7163 C.ar      1 <0>        -0.0938
     18 C9         -1.4395    2.1637   -0.7111 C.ar      1 <0>        -0.0938
     19 C10        -1.3254    3.3210    0.0375 C.ar      1 <0>        -0.0719
     20 C11        -2.3944    3.7682    0.7917 C.ar      1 <0>        -0.0220
     21 C12        -3.5840    3.0661    0.7907 C.ar      1 <0>        -0.0662
     22 N8         -2.2660    5.0040    1.5962 N.pl3     1 <0>         0.0257
     23 O2         -3.2090    5.4013    2.2569 O.2       1 <0>        -0.1518
     24 O3         -1.2158    5.6209    1.6014 O.3       1 <0>        -0.1544
     25 C13       -16.3533   -2.0233    1.0776 C.ar      1 <0>        -0.0425
     26 C14       -17.7446   -2.0339    1.2065 C.ar      1 <0>        -0.0895
     27 C15       -18.4223   -3.2336    1.2638 C.ar      1 <0>        -0.1768
     28 C16       -17.7262   -4.4314    1.1939 C.ar      1 <0>         0.1160
     29 C17       -16.3392   -4.4286    1.0649 C.ar      1 <0>         0.0978
     30 C18       -15.6530   -3.2301    1.0018 C.ar      1 <0>        -0.1349
     31 O4        -15.6605   -5.6050    0.9957 O.3       1 <0>        -0.3052
     32 C19       -14.2397   -5.5275    0.8640 C.3       1 <0>         0.0210
     33 O5        -18.3995   -5.6113    1.2509 O.3       1 <0>        -0.3034
     34 C20       -19.8207   -5.5415    1.3829 C.3       1 <0>         0.0208
     35 H1        -17.4601    0.3506    1.1900 H         1 <0>         0.0940
     36 H2        -16.2060    1.1403    0.1749 H         1 <0>         0.0798
     37 H3        -16.0402    1.1331    1.9635 H         1 <0>         0.0799
     38 H4        -14.1960    1.4326    0.8920 H         1 <0>         0.4101
     39 H5        -11.1673    3.7213    0.6200 H         1 <0>         0.4500
     40 H6        -12.9682    3.1213    0.7836 H         1 <0>         0.4368
     41 H7         -7.3336    0.4391    1.1555 H         1 <0>         0.1364
     42 H8         -7.4989    0.4460   -0.6332 H         1 <0>         0.1353
     43 H9         -4.8970    0.0976   -0.0609 H         1 <0>         0.4495
     44 H10        -2.7160    0.5561   -1.3049 H         1 <0>         0.1488
     45 H11        -0.6013    1.8147   -1.2960 H         1 <0>         0.1544
     46 H12        -0.3979    3.8744    0.0362 H         1 <0>         0.1565
     47 H13        -4.4200    3.4181    1.3769 H         1 <0>         0.1646
     48 H14       -18.2890   -1.1028    1.2615 H         1 <0>         0.1360
     49 H15       -19.4977   -3.2405    1.3631 H         1 <0>         0.1413
     50 H16       -14.5781   -3.2266    0.8977 H         1 <0>         0.1499
     51 H17       -13.8196   -6.5432    0.8197 H         1 <0>         0.1036
     52 H18       -13.8198   -4.9945    1.7298 H         1 <0>         0.0588
     53 H19       -13.9861   -4.9852   -0.0588 H         1 <0>         0.0587
     54 H20       -20.2362   -6.5594    1.4168 H         1 <0>         0.1038
     55 H21       -20.2428   -5.0016    0.5225 H         1 <0>         0.0576
     56 H22       -20.0770   -5.0097    2.3111 H         1 <0>         0.0577
@<TRIPOS>BOND
     1    1    2 1
     2    1   35 1
     3    1   36 1
     4    1   37 1
     5    2    3 2
     6    2   25 1
     7    3    4 1
     8    4    5 1
     9    4   38 1
    10    5    9 1
    11    5    6 2
    12    6    7 1
    13    7    8 2
    14    8    9 1
    15    8   11 1
    16    9   10 1
    17   10   39 1
    18   10   40 1
    19   11   12 1
    20   12   13 1
    21   12   41 1
    22   12   42 1
    23   13   14 2
    24   13   15 am
    25   15   16 1
    26   15   43 1
    27   16   21 ar
    28   16   17 ar
    29   17   18 ar
    30   17   44 1
    31   18   19 ar
    32   18   45 1
    33   19   20 ar
    34   19   46 1
    35   20   21 ar
    36   20   22 1
    37   21   47 1
    38   22   23 2
    39   22   24 1
    40   25   30 ar
    41   25   26 ar
    42   26   27 ar
    43   26   48 1
    44   27   28 ar
    45   27   49 1
    46   28   29 ar
    47   28   33 1
    48   29   30 ar
    49   29   31 1
    50   30   50 1
    51   31   32 1
    52   32   51 1
    53   32   52 1
    54   32   53 1
    55   33   34 1
    56   34   54 1
    57   34   55 1
    58   34   56 1
@<TRIPOS>MOLECULE
ZINC05226223
   59    61     0     0     0
SMALL
USER_CHARGES

@<TRIPOS>ATOM
      1 C1         -0.0173    1.4248    0.0099 C.3       1 <0>         0.0261
      2 O1          0.0021   -0.0041    0.0020 O.3       1 <0>        -0.3178
      3 C2          0.6062   -0.6075   -1.0563 C.ar      1 <0>         0.0940
      4 C3          1.1728    0.1612   -2.0622 C.ar      1 <0>        -0.1664
      5 C4          1.7864   -0.4517   -3.1373 C.ar      1 <0>        -0.1037
      6 C5          1.8363   -1.8358   -3.2107 C.ar      1 <0>         0.0909
      7 C6          1.2705   -2.6045   -2.2044 C.ar      1 <0>        -0.1694
      8 C7          0.6606   -1.9916   -1.1272 C.ar      1 <0>        -0.1114
      9 O2          2.4396   -2.4392   -4.2695 O.3       1 <0>        -0.2888
     10 C8          2.4542   -3.8681   -4.2801 C.3       1 <0>         0.0496
     11 C9          3.1594   -4.3541   -5.5201 C.2       1 <0>         0.5324
     12 O3          3.6057   -3.5553   -6.3165 O.2       1 <0>        -0.4753
     13 N1          3.2942   -5.6763   -5.7442 N.am      1 <0>        -0.5830
     14 N2          3.9498   -6.1281   -6.8969 N.2       1 <0>        -0.2319
     15 C10         4.0797   -7.4012   -7.1127 C.2       1 <0>         0.1230
     16 C11         4.7696   -7.8767   -8.3258 C.ar      1 <0>        -0.0929
     17 C12         5.2895   -6.9583   -9.2417 C.ar      1 <0>        -0.0405
     18 C13         5.9340   -7.4073  -10.3739 C.ar      1 <0>        -0.1506
     19 C14         6.0672   -8.7703  -10.6055 C.ar      1 <0>         0.1429
     20 C15         5.5515   -9.6868   -9.6980 C.ar      1 <0>        -0.1864
     21 C16         4.9106   -9.2470   -8.5602 C.ar      1 <0>        -0.0472
     22 O4          6.7033   -9.2084  -11.7230 O.3       1 <0>        -0.2951
     23 C17         6.8051  -10.6228  -11.8992 C.3       1 <0>         0.2248
     24 H1          5.8109  -11.0674  -11.8530 H         1 <0>         0.0790
     25 C18         7.4360  -10.9236  -13.2612 C.3       1 <0>         0.0603
     26 H2          8.4134  -10.4451  -13.3235 H         1 <0>         0.0878
     27 C19         7.5970  -12.4388  -13.4173 C.3       1 <0>         0.0859
     28 H3          6.6156  -12.9130  -13.4048 H         1 <0>         0.0790
     29 C20         8.4395  -12.9741  -12.2554 C.3       1 <0>         0.0896
     30 H4          9.4372  -12.5371  -12.2974 H         1 <0>         0.0814
     31 C21         7.7698  -12.5942  -10.9322 C.3       1 <0>         0.1085
     32 H5          6.7883  -13.0647  -10.8734 H         1 <0>         0.0837
     33 O5          7.6222  -11.1744  -10.8647 O.3       1 <0>        -0.3706
     34 C22         8.6361  -13.0734   -9.7658 C.3       1 <0>         0.0904
     35 O6          7.9569  -12.8231   -8.5337 O.3       1 <0>        -0.5660
     36 O7          8.5368  -14.3965  -12.3517 O.3       1 <0>        -0.5495
     37 O8          8.2504  -12.7252  -14.6555 O.3       1 <0>        -0.5537
     38 O9          6.5920  -10.4223  -14.2997 O.3       1 <0>        -0.5537
     39 H6          1.0053    1.8021    0.0021 H         1 <0>         0.0560
     40 H7         -0.5445    1.7859   -0.8732 H         1 <0>         0.0560
     41 H8         -0.5275    1.7763    0.9067 H         1 <0>         0.1012
     42 H9          1.1340    1.2390   -2.0050 H         1 <0>         0.1373
     43 H10         2.2270    0.1469   -3.9209 H         1 <0>         0.1376
     44 H11         1.3090   -3.6823   -2.2617 H         1 <0>         0.1349
     45 H12         0.2233   -2.5901   -0.3417 H         1 <0>         0.1358
     46 H13         2.9791   -4.2327   -3.3971 H         1 <0>         0.0981
     47 H14         1.4303   -4.2420   -4.2743 H         1 <0>         0.0981
     48 H15         2.9374   -6.3150   -5.1073 H         1 <0>         0.3874
     49 H16         3.6824   -8.1124   -6.4037 H         1 <0>         0.1223
     50 H17         5.1861   -5.8983   -9.0627 H         1 <0>         0.1436
     51 H18         6.3359   -6.6982  -11.0826 H         1 <0>         0.1363
     52 H19         5.6568  -10.7458   -9.8825 H         1 <0>         0.1360
     53 H20         4.5139   -9.9603   -7.8529 H         1 <0>         0.1331
     54 H21         8.8228  -14.1425   -9.8671 H         1 <0>         0.0788
     55 H22         9.5848  -12.5367   -9.7733 H         1 <0>         0.0578
     56 H23         8.4490  -13.1024   -7.7495 H         1 <0>         0.3855
     57 H24         8.9484  -14.7082  -13.1693 H         1 <0>         0.3959
     58 H25         7.7734  -12.4078  -15.4345 H         1 <0>         0.3964
     59 H26         6.4432   -9.4676  -14.2592 H         1 <0>         0.3964
@<TRIPOS>BOND
     1    1    2 1
     2    1   39 1
     3    1   40 1
     4    1   41 1
     5    2    3 1
     6    3    8 ar
     7    3    4 ar
     8    4    5 ar
     9    4   42 1
    10    5    6 ar
    11    5   43 1
    12    6    7 ar
    13    6    9 1
    14    7    8 ar
    15    7   44 1
    16    8   45 1
    17    9   10 1
    18   10   11 1
    19   10   46 1
    20   10   47 1
    21   11   12 2
    22   11   13 am
    23   13   14 1
    24   13   48 1
    25   14   15 2
    26   15   16 1
    27   15   49 1
    28   16   21 ar
    29   16   17 ar
    30   17   18 ar
    31   17   50 1
    32   18   19 ar
    33   18   51 1
    34   19   20 ar
    35   19   22 1
    36   20   21 ar
    37   20   52 1
    38   21   53 1
    39   22   23 1
    40   23   24 1
    41   23   33 1
    42   23   25 1
    43   25   26 1
    44   25   27 1
    45   25   38 1
    46   27   28 1
    47   27   29 1
    48   27   37 1
    49   29   30 1
    50   29   31 1
    51   29   36 1
    52   31   32 1
    53   31   33 1
    54   31   34 1
    55   34   35 1
    56   34   54 1
    57   34   55 1
    58   35   56 1
    59   36   57 1
    60   37   58 1
    61   38   59 1
@<TRIPOS>MOLECULE
ZINC14159299
   69    71     0     0     0
SMALL
USER_CHARGES

@<TRIPOS>ATOM
      1 C1         -0.0415   -6.6268    5.2107 C.3       1 <0>        -0.1042
      2 C2         -0.0067   -5.9932    3.8438 C.ar      1 <0>         0.2070
      3 C3          0.1143   -6.7797    2.7088 C.ar      1 <0>        -0.2580
      4 C4          0.1418   -6.1564    1.4710 C.ar      1 <0>         0.2093
      5 N1          0.0524   -4.8381    1.4105 N.ar      1 <0>        -0.5532
      6 C5         -0.0623   -4.1158    2.5145 C.ar      1 <0>         0.5525
      7 N2         -0.0968   -4.6801    3.7121 N.ar      1 <0>        -0.4891
      8 N3         -0.1534   -2.7341    2.4137 N.pl3     1 <0>        -0.6078
      9 C6         -0.1595   -1.9642    3.5456 C.2       1 <0>         0.7083
     10 N4          0.0304   -2.5250    4.7275 N.2       1 <0>        -0.5841
     11 C7          0.1063   -1.7619    5.8272 C.2       1 <0>         0.5574
     12 S1         -1.2594   -0.8688    6.3453 S.2       1 <0>        -0.6746
     13 N5          1.2576   -1.6978    6.5248 N.pl3     1 <0>        -0.6520
     14 C8          1.3406   -0.8640    7.7265 C.3       1 <0>         0.1140
     15 C9          2.7452   -0.9685    8.3239 C.3       1 <0>        -0.1303
     16 C10         2.8318   -0.0977    9.5789 C.3       1 <0>         0.0600
     17 N6          4.1805   -0.1981   10.1525 N.3       1 <0>        -0.5375
     18 C11         4.4386   -1.5544   10.6575 C.3       1 <0>         0.0130
     19 C12         5.8717   -1.6305   11.1905 C.3       1 <0>         0.0629
     20 O1          6.0533   -0.6334   12.1996 O.3       1 <0>        -0.3849
     21 C13         5.8107    0.6996   11.7419 C.3       1 <0>         0.0629
     22 C14         4.3769    0.7994   11.2145 C.3       1 <0>         0.0169
     23 N7         -0.3616   -0.6174    3.4538 N.pl3     1 <0>        -0.7210
     24 C15        -0.6900   -0.0124    2.1606 C.3       1 <0>         0.1212
     25 C16        -0.7444    1.5095    2.3086 C.3       1 <0>        -0.1101
     26 S2         -1.2940    2.2497    0.7463 S.3       1 <0>        -0.2212
     27 C17        -1.3047    4.0317    1.0849 C.3       1 <0>         0.0049
     28 C18        -1.7492    4.7747   -0.1486 C.2       1 <0>         0.0078
     29 C19        -0.9475    5.2294   -1.1304 C.2       1 <0>         0.0037
     30 N8         -1.7560    5.8395   -2.0512 N.pl3     1 <0>        -0.5670
     31 H1         -1.4710    6.2663   -2.8744 H         1 <0>         0.4221
     32 C20        -3.0245    5.7363   -1.5996 C.2       1 <0>         0.1910
     33 N9         -3.0133    5.0940   -0.4637 N.2       1 <0>        -0.4764
     34 C21         0.5516    5.0932   -1.2015 C.3       1 <0>        -0.0815
     35 C22         0.2726   -6.9708    0.2098 C.3       1 <0>        -0.1072
     36 H2         -1.0772   -6.7749    5.5163 H         1 <0>         0.0869
     37 H3          0.4689   -7.5893    5.1781 H         1 <0>         0.0807
     38 H4          0.4588   -5.9744    5.9264 H         1 <0>         0.0826
     39 H5          0.1859   -7.8544    2.7873 H         1 <0>         0.1487
     40 H6         -0.2128   -2.3143    1.5413 H         1 <0>         0.4359
     41 H7          2.0314   -2.2039    6.2313 H         1 <0>         0.4007
     42 H8          1.1338    0.1735    7.4638 H         1 <0>         0.0899
     43 H9          0.6083   -1.2065    8.4577 H         1 <0>         0.0892
     44 H10         2.9520   -2.0060    8.5866 H         1 <0>         0.0707
     45 H11         3.4774   -0.6260    7.5927 H         1 <0>         0.0792
     46 H12         2.6250    0.9398    9.3162 H         1 <0>         0.0830
     47 H13         2.0996   -0.4402   10.3101 H         1 <0>         0.0432
     48 H14         3.7387   -1.7828   11.4613 H         1 <0>         0.0453
     49 H15         4.3124   -2.2741    9.8487 H         1 <0>         0.0875
     50 H16         6.0492   -2.6174   11.6180 H         1 <0>         0.0988
     51 H17         6.5732   -1.4550   10.3749 H         1 <0>         0.0598
     52 H18         5.9440    1.3980   12.5681 H         1 <0>         0.0998
     53 H19         6.5104    0.9430   10.9423 H         1 <0>         0.0603
     54 H20         4.2057    1.7979   10.8122 H         1 <0>         0.0884
     55 H21         3.6761    0.6086   12.0271 H         1 <0>         0.0456
     56 H22        -0.2878   -0.0608    4.2448 H         1 <0>         0.4285
     57 H23         0.0737   -0.2793    1.4302 H         1 <0>         0.0798
     58 H24        -1.6594   -0.3795    1.8234 H         1 <0>         0.0859
     59 H25        -1.4446    1.7726    3.1014 H         1 <0>         0.0973
     60 H26         0.2472    1.8857    2.5599 H         1 <0>         0.0898
     61 H27        -1.9931    4.2419    1.9035 H         1 <0>         0.0970
     62 H28        -0.3013    4.3550    1.3619 H         1 <0>         0.0931
     63 H29        -3.9031    6.1184   -2.0980 H         1 <0>         0.2121
     64 H30         0.8083    4.1680   -1.7175 H         1 <0>         0.0801
     65 H31         0.9680    5.9406   -1.7463 H         1 <0>         0.0673
     66 H32         0.9628    5.0726   -0.1923 H         1 <0>         0.0824
     67 H33        -0.7193   -7.2396   -0.1536 H         1 <0>         0.0882
     68 H34         0.7910   -6.3846   -0.5491 H         1 <0>         0.0835
     69 H35         0.8406   -7.8771    0.4197 H         1 <0>         0.0841
@<TRIPOS>BOND
     1    1    2 1
     2    1   36 1
     3    1   37 1
     4    1   38 1
     5    2    7 ar
     6    2    3 ar
     7    3    4 ar
     8    3   39 1
     9    4    5 ar
    10    4   35 1
    11    5    6 ar
    12    6    7 ar
    13    6    8 1
    14    8    9 1
    15    8   40 1
    16    9   10 2
    17    9   23 1
    18   10   11 1
    19   11   12 2
    20   11   13 1
    21   13   14 1
    22   13   41 1
    23   14   15 1
    24   14   42 1
    25   14   43 1
    26   15   16 1
    27   15   44 1
    28   15   45 1
    29   16   17 1
    30   16   46 1
    31   16   47 1
    32   17   22 1
    33   17   18 1
    34   18   19 1
    35   18   48 1
    36   18   49 1
    37   19   20 1
    38   19   50 1
    39   19   51 1
    40   20   21 1
    41   21   22 1
    42   21   52 1
    43   21   53 1
    44   22   54 1
    45   22   55 1
    46   23   24 1
    47   23   56 1
    48   24   25 1
    49   24   57 1
    50   24   58 1
    51   25   26 1
    52   25   59 1
    53   25   60 1
    54   26   27 1
    55   27   28 1
    56   27   61 1
    57   27   62 1
    58   28   33 1
    59   28   29 2
    60   29   30 1
    61   29   34 1
    62   30   31 1
    63   30   32 1
    64   32   33 2
    65   32   63 1
    66   34   64 1
    67   34   65 1
    68   34   66 1
    69   35   67 1
    70   35   68 1
    71   35   69 1
@<TRIPOS>MOLECULE
ZINC08876240
   60    64     0     0     0
SMALL
USER_CHARGES
3-(2-ethoxyphenyl)-5-(ethylBLAHyl)-6-hydroxy-1H-pyrimidine-2,4-dione
@<TRIPOS>ATOM
      1 C1         -1.4614    3.5174    2.6050 C.3       1 <0>        -0.1844
      2 C2         -1.5240    1.9986    2.4309 C.3       1 <0>        -0.0050
      3 C3         -3.6083    2.2678    1.2272 C.3       1 <0>        -0.0018
      4 C4         -4.4756    1.6079    0.1464 C.3       1 <0>        -0.0704
      5 C5         -3.6961    1.6144   -1.1444 C.2       1 <0>        -0.1476
      6 C6         -4.1615    1.4037   -2.4969 C.ar      1 <0>        -0.0974
      7 C7         -5.4230    1.1347   -3.0372 C.ar      1 <0>        -0.0627
      8 C8         -5.4970    0.9910   -4.4005 C.ar      1 <0>        -0.1385
      9 C9         -4.3817    1.1046   -5.2143 C.ar      1 <0>        -0.0829
     10 C10        -3.1215    1.3697   -4.7071 C.ar      1 <0>        -0.1306
     11 C11        -3.0155    1.5206   -3.3261 C.ar      1 <0>         0.1129
     12 N1         -1.9493    1.7813   -2.5132 N.pl3     1 <0>        -0.5620
     13 H1         -1.0361    1.9086   -2.8143 H         1 <0>         0.4159
     14 C12        -2.3634    1.8358   -1.2101 C.2       1 <0>         0.0348
     15 C13        -1.5119    2.0985    0.0094 C.3       1 <0>         0.2163
     16 H2         -1.2832    3.1622    0.0741 H         1 <0>         0.1599
     17 C14        -0.2312    1.3102   -0.0879 C.2       1 <0>        -0.3951
     18 C15         0.9673    1.9501   -0.2015 C.2       1 <0>         0.4773
     19 N2          2.1202    1.2124   -0.2953 N.am      1 <0>        -0.6524
     20 H3          2.9753    1.6631   -0.3770 H         1 <0>         0.4456
     21 C16         2.0727   -0.1322   -0.2742 C.2       1 <0>         0.7039
     22 O1          3.1049   -0.7694   -0.3580 O.2       1 <0>        -0.4817
     23 N3          0.8998   -0.7820   -0.1622 N.am      1 <0>        -0.4881
     24 C17        -0.2562   -0.0954   -0.0685 C.2       1 <0>         0.5793
     25 O2         -1.3160   -0.6889    0.0328 O.2       1 <0>        -0.4983
     26 C18         0.8799   -2.1846   -0.1434 C.ar      1 <0>         0.0741
     27 C19         0.7645   -2.8945   -1.3294 C.ar      1 <0>        -0.0510
     28 C20         0.7451   -4.2760   -1.3085 C.ar      1 <0>        -0.1434
     29 C21         0.8410   -4.9542   -0.1071 C.ar      1 <0>        -0.0506
     30 C22         0.9563   -4.2536    1.0789 C.ar      1 <0>        -0.2002
     31 C23         0.9818   -2.8681    1.0658 C.ar      1 <0>         0.1597
     32 O3          1.1009   -2.1777    2.2310 O.3       1 <0>        -0.3186
     33 C24         1.2007   -2.9449    3.4324 C.3       1 <0>         0.0507
     34 C25         1.3268   -2.0020    4.6307 C.3       1 <0>        -0.1506
     35 O4          1.0191    3.2989   -0.2230 O.3       1 <0>        -0.4321
     36 H4         -0.9512    3.9604    1.7498 H         1 <0>         0.0780
     37 H5         -2.4732    3.9174    2.6717 H         1 <0>         0.0840
     38 H6         -0.9153    3.7563    3.5176 H         1 <0>         0.1044
     39 H7         -2.0320    1.5553    3.2874 H         1 <0>         0.1320
     40 H8         -0.5123    1.5988    2.3616 H         1 <0>         0.1193
     41 H9         -3.5386    3.3382    1.0338 H         1 <0>         0.1334
     42 H10        -4.0597    2.1039    2.2057 H         1 <0>         0.1372
     43 H11        -5.4004    2.1712    0.0213 H         1 <0>         0.1201
     44 H12        -4.7053    0.5816    0.4330 H         1 <0>         0.1003
     45 H13        -6.2982    1.0438   -2.4111 H         1 <0>         0.1343
     46 H14        -6.4552    0.7823   -4.8530 H         1 <0>         0.1265
     47 H15        -4.4996    0.9825   -6.2809 H         1 <0>         0.1291
     48 H16        -2.2597    1.4557   -5.3523 H         1 <0>         0.1321
     49 H17         0.6894   -2.3675   -2.2692 H         1 <0>         0.1314
     50 H18         0.6551   -4.8276   -2.2326 H         1 <0>         0.1396
     51 H19         0.8261   -6.0340   -0.0955 H         1 <0>         0.1395
     52 H20         1.0306   -4.7862    2.0155 H         1 <0>         0.1411
     53 H21         0.3079   -3.5597    3.5462 H         1 <0>         0.0688
     54 H22         2.0800   -3.5871    3.3814 H         1 <0>         0.0697
     55 H23         0.4475   -1.3598    4.6818 H         1 <0>         0.0622
     56 H24         1.4030   -2.5872    5.5471 H         1 <0>         0.0863
     57 H25         2.2196   -1.3872    4.5169 H         1 <0>         0.0658
     58 H26         1.9135    3.6569   -0.3064 H         1 <0>         0.4325
     59 N4         -2.2654    1.6451    1.2030 N.4       1 <0>        -0.3913
     60 H27        -2.3728    0.6249    1.1605 H         1 <0>         0.4389
@<TRIPOS>BOND
     1    1    2 1
     2    1   36 1
     3    1   37 1
     4    1   38 1
     5    2   39 1
     6    2   40 1
     7    2   59 1
     8    3    4 1
     9    3   41 1
    10    3   42 1
    11    3   59 1
    12    4    5 1
    13    4   43 1
    14    4   44 1
    15    5   14 2
    16    5    6 1
    17    6   11 ar
    18    6    7 ar
    19    7    8 ar
    20    7   45 1
    21    8    9 ar
    22    8   46 1
    23    9   10 ar
    24    9   47 1
    25   10   11 ar
    26   10   48 1
    27   11   12 1
    28   12   13 1
    29   12   14 1
    30   14   15 1
    31   15   16 1
    32   15   17 1
    33   15   59 1
    34   17   24 1
    35   17   18 2
    36   18   19 1
    37   18   35 1
    38   19   20 1
    39   19   21 am
    40   21   22 2
    41   21   23 am
    42   23   24 am
    43   23   26 1
    44   24   25 2
    45   26   31 ar
    46   26   27 ar
    47   27   28 ar
    48   27   49 1
    49   28   29 ar
    50   28   50 1
    51   29   30 ar
    52   29   51 1
    53   30   31 ar
    54   30   52 1
    55   31   32 1
    56   32   33 1
    57   33   34 1
    58   33   53 1
    59   33   54 1
    60   34   55 1
    61   34   56 1
    62   34   57 1
    63   35   58 1
    64   59   60 1
@<TRIPOS>MOLECULE
ZINC21412462
   53    56     0     0     0
SMALL
USER_CHARGES
2-[4-[(4-aminoquinazolin-2-yl)methyl]piperazin-1-yl]-N-(2,3-dichlorophenyl)acetamide
@<TRIPOS>ATOM
      1 C1          2.3907    1.3676    0.0013 C.ar      1 <0>        -0.1302
      2 C2          1.1736    2.0434    0.0124 C.ar      1 <0>        -0.0686
      3 C3         -0.0078    1.3633    0.0184 C.ar      1 <0>        -0.1144
      4 C4          0.0007   -0.0382    0.0132 C.ar      1 <0>         0.1888
      5 C5          1.2400   -0.7237    0.0020 C.ar      1 <0>        -0.2018
      6 C6          2.4349    0.0045   -0.0039 C.ar      1 <0>        -0.0695
      7 C7          1.2210   -2.1397   -0.0039 C.ar      1 <0>         0.4893
      8 N1          0.0434   -2.7503    0.0018 N.ar      1 <0>        -0.5934
      9 C8         -1.0897   -2.0668    0.0127 C.ar      1 <0>         0.3695
     10 N2         -1.1325   -0.7555    0.0181 N.ar      1 <0>        -0.5584
     11 C9         -2.3897   -2.8290    0.0185 C.3       1 <0>         0.1266
     12 N3         -2.8215   -3.0713   -1.3645 N.3       1 <0>        -0.5324
     13 C10        -3.1622   -1.8105   -2.0383 C.3       1 <0>         0.0281
     14 C11        -3.5296   -2.0974   -3.4961 C.3       1 <0>        -0.0061
     15 N4         -4.6597   -3.0358   -3.5383 N.4       1 <0>        -0.3895
     16 C12        -4.3190   -4.2966   -2.8645 C.3       1 <0>         0.0027
     17 C13        -3.9516   -4.0097   -1.4066 C.3       1 <0>         0.0280
     18 C14        -5.0915   -3.2781   -4.9213 C.3       1 <0>        -0.0260
     19 C15        -5.6622   -2.0086   -5.4990 C.2       1 <0>         0.5066
     20 O1         -5.7050   -1.0012   -4.8249 O.2       1 <0>        -0.5098
     21 N5         -6.1251   -1.9927   -6.7647 N.am      1 <0>        -0.6566
     22 C16        -6.7599   -0.8491   -7.2635 C.ar      1 <0>         0.1563
     23 C17        -7.3730    0.0420   -6.3926 C.ar      1 <0>        -0.1139
     24 C18        -7.9983    1.1699   -6.8870 C.ar      1 <0>        -0.0775
     25 C19        -8.0150    1.4135   -8.2481 C.ar      1 <0>        -0.1031
     26 C20        -7.4054    0.5283   -9.1197 C.ar      1 <0>        -0.0110
     27 C21        -6.7729   -0.6004   -8.6302 C.ar      1 <0>        -0.0606
     28 Cl1        -6.0022   -1.7078   -9.7227 Cl        1 <0>        -0.0351
     29 Cl2        -7.4282    0.8382  -10.8277 Cl        1 <0>        -0.0274
     30 N6          2.3940   -2.8636   -0.0147 N.pl3     1 <0>        -0.8388
     31 H1          3.3124    1.9305   -0.0036 H         1 <0>         0.1335
     32 H2          1.1652    3.1234    0.0164 H         1 <0>         0.1358
     33 H3         -0.9443    1.9010    0.0225 H         1 <0>         0.1389
     34 H4          3.3849   -0.5090   -0.0129 H         1 <0>         0.1275
     35 H5         -2.2482   -3.7913    0.5324 H         1 <0>         0.1125
     36 H6         -3.1568   -2.2417    0.5445 H         1 <0>         0.0752
     37 H7         -4.0173   -1.3420   -1.5290 H         1 <0>         0.0682
     38 H8         -2.2978   -1.1311   -2.0039 H         1 <0>         0.1263
     39 H9         -3.8126   -1.1585   -3.9945 H         1 <0>         0.1479
     40 H10        -2.6647   -2.5401   -4.0119 H         1 <0>         0.1300
     41 H11        -5.1834   -4.9760   -2.8990 H         1 <0>         0.1401
     42 H12        -3.4639   -4.7651   -3.3738 H         1 <0>         0.1384
     43 H13        -3.6678   -4.9480   -0.9075 H         1 <0>         0.1294
     44 H14        -4.8157   -3.5664   -0.8901 H         1 <0>         0.0655
     45 H15        -4.2291   -3.5998   -5.5236 H         1 <0>         0.1620
     46 H16        -5.8606   -4.0644   -4.9329 H         1 <0>         0.1674
     47 H17        -6.0041   -2.8784   -7.4058 H         1 <0>         0.4493
     48 H18        -7.3611   -0.1470   -5.3294 H         1 <0>         0.1579
     49 H19        -8.4753    1.8626   -6.2095 H         1 <0>         0.1489
     50 H20        -8.5051    2.2961   -8.6317 H         1 <0>         0.1511
     51 H21         2.3617   -3.9631   -0.0192 H         1 <0>         0.4382
     52 H22         3.3623   -2.3418   -0.0189 H         1 <0>         0.4377
     53 H23        -5.5015   -2.5783   -2.9979 H         1 <0>         0.4471
@<TRIPOS>BOND
     1    1    6 ar
     2    1    2 ar
     3    1   31 1
     4    2    3 ar
     5    2   32 1
     6    3    4 ar
     7    3   33 1
     8    4   10 ar
     9    4    5 ar
    10    5    6 ar
    11    5    7 ar
    12    6   34 1
    13    7    8 ar
    14    7   30 1
    15    8    9 ar
    16    9   10 ar
    17    9   11 1
    18   11   12 1
    19   11   35 1
    20   11   36 1
    21   12   17 1
    22   12   13 1
    23   13   14 1
    24   13   37 1
    25   13   38 1
    26   14   15 1
    27   14   39 1
    28   14   40 1
    29   15   16 1
    30   15   18 1
    31   15   53 1
    32   16   17 1
    33   16   41 1
    34   16   42 1
    35   17   43 1
    36   17   44 1
    37   18   19 1
    38   18   45 1
    39   18   46 1
    40   19   20 2
    41   19   21 am
    42   21   22 1
    43   21   47 1
    44   22   27 ar
    45   22   23 ar
    46   23   24 ar
    47   23   48 1
    48   24   25 ar
    49   24   49 1
    50   25   26 ar
    51   25   50 1
    52   26   27 ar
    53   26   29 1
    54   27   28 1
    55   30   51 1
    56   30   52 1
@<TRIPOS>MOLECULE
ZINC39462576
   54    58     0     0     0
SMALL
USER_CHARGES

@<TRIPOS>ATOM
      1 C1          0.1755    1.5791    0.5771 C.ar      1 <0>        -0.1275
      2 C2          1.3812    2.2679    0.5478 C.ar      1 <0>        -0.0703
      3 C3          2.5772    1.5926    0.4551 C.ar      1 <0>        -0.1033
      4 C4          2.5805    0.1977    0.3902 C.ar      1 <0>         0.1464
      5 C5          1.3526   -0.4995    0.4208 C.ar      1 <0>        -0.1928
      6 C6          0.1530    0.2031    0.5144 C.ar      1 <0>        -0.0415
      7 C7          1.3904   -1.9678    0.3501 C.2       1 <0>         0.5536
      8 O1          0.3683   -2.6285    0.3715 O.2       1 <0>        -0.4983
      9 N1          2.6061   -2.5560    0.2601 N.am      1 <0>        -0.6490
     10 H1          2.6698   -3.5227    0.2116 H         1 <0>         0.4179
     11 C8          3.7378   -1.8048    0.2365 C.2       1 <0>         0.3987
     12 N2          3.7355   -0.5078    0.2977 N.2       1 <0>        -0.4980
     13 C9          5.0640   -2.5132    0.1347 C.3       1 <0>        -0.0655
     14 S1          6.4036   -1.2900    0.1224 S.3       1 <0>        -0.0443
     15 C10         7.9110   -2.2913   -0.0026 C.3       1 <0>         0.2463
     16 H2          8.7935   -1.6515   -0.0059 H         1 <0>         0.1052
     17 N3          7.9809   -3.2676    1.1161 N.3       1 <0>        -0.4544
     18 N4          8.8550   -4.3228    0.5795 N.3       1 <0>        -0.4762
     19 C11         8.4746   -4.4253   -0.8478 C.3       1 <0>         0.4167
     20 H3          7.7482   -5.2265   -0.9841 H         1 <0>         0.1692
     21 N5          7.8756   -3.1289   -1.2186 N.pl3     1 <0>        -0.6670
     22 C12         7.3728   -2.7653   -2.4700 C.ar      1 <0>         0.1703
     23 C13         7.9793   -1.7467   -3.1946 C.ar      1 <0>        -0.1160
     24 C14         7.4805   -1.3895   -4.4318 C.ar      1 <0>        -0.0800
     25 C15         6.3780   -2.0438   -4.9501 C.ar      1 <0>        -0.0964
     26 C16         5.7712   -3.0589   -4.2314 C.ar      1 <0>        -0.0171
     27 C17         6.2693   -3.4249   -2.9949 C.ar      1 <0>        -0.1280
     28 Cl1         4.3870   -3.8772   -4.8858 Cl        1 <0>        -0.0429
     29 N6          9.6655   -4.6812   -1.6689 N.4       1 <0>        -0.4230
     30 C18        10.3417   -5.9241   -1.2172 C.3       1 <0>        -0.0002
     31 C19        11.1693   -6.3479   -2.4566 C.3       1 <0>        -0.1429
     32 C20        10.2367   -5.9859   -3.6352 C.3       1 <0>        -0.1417
     33 C21         9.2735   -4.9234   -3.0743 C.3       1 <0>        -0.0031
     34 H4         -0.7521    2.1268    0.6543 H         1 <0>         0.1389
     35 H5          1.3804    3.3468    0.5979 H         1 <0>         0.1393
     36 H6          3.5085    2.1390    0.4323 H         1 <0>         0.1415
     37 H7         -0.7876   -0.3271    0.5381 H         1 <0>         0.1415
     38 H8          5.1872   -3.1784    0.9893 H         1 <0>         0.1280
     39 H9          5.0952   -3.0954   -0.7863 H         1 <0>         0.1114
     40 H10         8.3856   -2.8465    1.9388 H         1 <0>         0.3833
     41 H11         9.8272   -4.0715    0.6774 H         1 <0>         0.3318
     42 H12         8.8399   -1.2345   -2.7905 H         1 <0>         0.1322
     43 H13         7.9519   -0.5977   -4.9951 H         1 <0>         0.1460
     44 H14         5.9896   -1.7619   -5.9176 H         1 <0>         0.1452
     45 H15         5.7984   -4.2201   -2.4361 H         1 <0>         0.1360
     46 H16        10.9957   -5.7199   -0.3694 H         1 <0>         0.1358
     47 H17         9.6091   -6.6902   -0.9635 H         1 <0>         0.1406
     48 H18        12.0987   -5.7811   -2.5120 H         1 <0>         0.0977
     49 H19        11.3700   -7.4191   -2.4384 H         1 <0>         0.1198
     50 H20        10.8148   -5.5736   -4.4622 H         1 <0>         0.1058
     51 H21         9.6813   -6.8651   -3.9621 H         1 <0>         0.1058
     52 H22         8.2487   -5.2923   -3.1157 H         1 <0>         0.1276
     53 H23         9.3624   -4.0013   -3.6488 H         1 <0>         0.1300
     54 H24        10.3005   -3.8990   -1.6147 H         1 <0>         0.4171
@<TRIPOS>BOND
     1    1    6 ar
     2    1    2 ar
     3    1   34 1
     4    2    3 ar
     5    2   35 1
     6    3    4 ar
     7    3   36 1
     8    4   12 1
     9    4    5 ar
    10    5    6 ar
    11    5    7 1
    12    6   37 1
    13    7    8 2
    14    7    9 am
    15    9   10 1
    16    9   11 1
    17   11   12 2
    18   11   13 1
    19   13   14 1
    20   13   38 1
    21   13   39 1
    22   14   15 1
    23   15   16 1
    24   15   21 1
    25   15   17 1
    26   17   18 1
    27   17   40 1
    28   18   19 1
    29   18   41 1
    30   19   20 1
    31   19   21 1
    32   19   29 1
    33   21   22 1
    34   22   27 ar
    35   22   23 ar
    36   23   24 ar
    37   23   42 1
    38   24   25 ar
    39   24   43 1
    40   25   26 ar
    41   25   44 1
    42   26   27 ar
    43   26   28 1
    44   27   45 1
    45   29   33 1
    46   29   30 1
    47   29   54 1
    48   30   31 1
    49   30   46 1
    50   30   47 1
    51   31   32 1
    52   31   48 1
    53   31   49 1
    54   32   33 1
    55   32   50 1
    56   32   51 1
    57   33   52 1
    58   33   53 1
@<TRIPOS>MOLECULE
ZINC40428792
   61    65     0     0     0
SMALL
USER_CHARGES

@<TRIPOS>ATOM
      1 C1         -0.0168    1.3902    0.0097 C.ar      1 <0>        -0.0494
      2 C2          1.1696    2.0939    0.0021 C.ar      1 <0>        -0.1608
      3 C3          2.3788    1.4175   -0.0135 C.ar      1 <0>         0.1178
      4 C4          2.4027    0.0320   -0.0216 C.ar      1 <0>        -0.1622
      5 C5          1.2214   -0.6804   -0.0142 C.ar      1 <0>        -0.0260
      6 C6          0.0021   -0.0041    0.0020 C.ar      1 <0>        -0.0354
      7 C7         -1.2698   -0.7648    0.0106 C.2       1 <0>         0.1818
      8 C8         -1.5037   -1.9743   -0.6340 C.2       1 <0>        -0.0326
      9 N1         -2.8102   -2.3166   -0.3600 N.pl3     1 <0>        -0.3435
     10 C9         -3.5727   -3.3854   -0.7245 C.2       1 <0>         0.0697
     11 C10        -4.8558   -3.4880   -0.3139 C.2       1 <0>        -0.1427
     12 C11        -5.4197   -2.4902    0.4958 C.2       1 <0>        -0.0737
     13 C12        -4.6674   -1.4178    0.8663 C.2       1 <0>        -0.0585
     14 C13        -3.3309   -1.3267    0.4296 C.2       1 <0>         0.2429
     15 N2         -2.3922   -0.4122    0.6437 N.2       1 <0>        -0.4735
     16 C14        -6.8513   -2.6050    0.9526 C.3       1 <0>        -0.0507
     17 C15        -7.0278   -3.8907    1.7656 C.3       1 <0>        -0.1407
     18 C16        -8.4991   -4.0412    2.1585 C.3       1 <0>        -0.0057
     19 N3         -9.3279   -4.1078    0.9489 N.4       1 <0>        -0.3827
     20 C17        -9.2192   -2.8496    0.2008 C.3       1 <0>        -0.0123
     21 C18        -7.7757   -2.6532   -0.2673 C.3       1 <0>        -0.1403
     22 C19       -10.7293   -4.3303    1.3290 C.3       1 <0>        -0.0065
     23 C20       -11.5749   -4.5242    0.0688 C.3       1 <0>        -0.1529
     24 C21       -13.0345   -4.7559    0.4647 C.3       1 <0>         0.0793
     25 O1        -13.8244   -4.9370   -0.7124 O.3       1 <0>        -0.5712
     26 C22        -0.5460   -2.7376   -1.4480 C.ar      1 <0>         0.2988
     27 C23        -0.6944   -4.1237   -1.6120 C.ar      1 <0>        -0.3025
     28 C24         0.2299   -4.7962   -2.3852 C.ar      1 <0>         0.2095
     29 N4          1.2228   -4.1200   -2.9461 N.ar      1 <0>        -0.5703
     30 C25         1.3412   -2.8110   -2.7761 C.ar      1 <0>         0.5815
     31 N5          0.4765   -2.1227   -2.0482 N.ar      1 <0>        -0.5512
     32 N6          2.3936   -2.1454   -3.3804 N.pl3     1 <0>        -0.8134
     33 F1          3.5383    2.1109   -0.0213 F         1 <0>        -0.1353
     34 H1         -0.9588    1.9182    0.0260 H         1 <0>         0.1373
     35 H2          1.1559    3.1738    0.0081 H         1 <0>         0.1408
     36 H3          3.3475   -0.4909   -0.0342 H         1 <0>         0.1368
     37 H4          1.2409   -1.7602   -0.0212 H         1 <0>         0.1233
     38 H5         -3.1474   -4.1578   -1.3480 H         1 <0>         0.1714
     39 H6         -5.4492   -4.3404   -0.6099 H         1 <0>         0.1510
     40 H7         -5.0913   -0.6438    1.4890 H         1 <0>         0.1581
     41 H8         -7.1070   -1.7439    1.5700 H         1 <0>         0.1039
     42 H9         -6.7223   -4.7467    1.1640 H         1 <0>         0.0924
     43 H10        -6.4143   -3.8397    2.6651 H         1 <0>         0.1176
     44 H11        -8.6283   -4.9555    2.7377 H         1 <0>         0.1340
     45 H12        -8.8034   -3.1849    2.7603 H         1 <0>         0.1318
     46 H13        -9.8801   -2.8841   -0.6653 H         1 <0>         0.1352
     47 H14        -9.5082   -2.0187    0.8444 H         1 <0>         0.1322
     48 H15        -7.6968   -1.7176   -0.8210 H         1 <0>         0.1170
     49 H16        -7.4857   -3.4835   -0.9112 H         1 <0>         0.0921
     50 H17       -10.7993   -5.2205    1.9541 H         1 <0>         0.1341
     51 H18       -11.0967   -3.4670    1.8839 H         1 <0>         0.1327
     52 H19       -11.5050   -3.6339   -0.5562 H         1 <0>         0.0948
     53 H20       -11.2075   -5.3875   -0.4861 H         1 <0>         0.0943
     54 H21       -13.1045   -5.6462    1.0897 H         1 <0>         0.0568
     55 H22       -13.4020   -3.8926    1.0195 H         1 <0>         0.0566
     56 H23       -14.7630   -5.0892   -0.5366 H         1 <0>         0.3977
     57 H24        -1.5122   -4.6514   -1.1440 H         1 <0>         0.1375
     58 H25         0.1454   -5.8628   -2.5317 H         1 <0>         0.1728
     59 H26         3.0325   -2.6370   -3.9200 H         1 <0>         0.4192
     60 H27         2.4923   -1.1875   -3.2644 H         1 <0>         0.4175
     61 H28        -9.0137   -4.8711    0.3687 H         1 <0>         0.4233
@<TRIPOS>BOND
     1    1    6 ar
     2    1    2 ar
     3    1   34 1
     4    2    3 ar
     5    2   35 1
     6    3    4 ar
     7    3   33 1
     8    4    5 ar
     9    4   36 1
    10    5    6 ar
    11    5   37 1
    12    6    7 1
    13    7   15 1
    14    7    8 2
    15    8    9 1
    16    8   26 1
    17    9   14 1
    18    9   10 1
    19   10   11 2
    20   10   38 1
    21   11   12 1
    22   11   39 1
    23   12   13 2
    24   12   16 1
    25   13   14 1
    26   13   40 1
    27   14   15 2
    28   16   21 1
    29   16   17 1
    30   16   41 1
    31   17   18 1
    32   17   42 1
    33   17   43 1
    34   18   19 1
    35   18   44 1
    36   18   45 1
    37   19   20 1
    38   19   22 1
    39   19   61 1
    40   20   21 1
    41   20   46 1
    42   20   47 1
    43   21   48 1
    44   21   49 1
    45   22   23 1
    46   22   50 1
    47   22   51 1
    48   23   24 1
    49   23   52 1
    50   23   53 1
    51   24   25 1
    52   24   54 1
    53   24   55 1
    54   25   56 1
    55   26   31 ar
    56   26   27 ar
    57   27   28 ar
    58   27   57 1
    59   28   29 ar
    60   28   58 1
    61   29   30 ar
    62   30   31 ar
    63   30   32 1
    64   32   59 1
    65   32   60 1
@<TRIPOS>MOLECULE
ZINC63281263
   49    52     0     0     0
SMALL
USER_CHARGES

@<TRIPOS>ATOM
      1 C1         -0.0225    1.8097    0.0120 C.3       1 <0>        -0.6741
      2 S1          0.0021   -0.0041    0.0020 S.o2      1 <0>         2.6042
      3 O1          0.8352   -0.4880    1.0465 O.2       1 <0>        -0.9368
      4 O2         -1.3147   -0.5105   -0.1678 O.2       1 <0>        -0.9420
      5 N1          0.7947   -0.4113   -1.3938 N.pl3     1 <0>        -1.1098
      6 C2          2.2072   -0.0612   -1.5629 C.3       1 <0>         0.4130
      7 H1          2.4544    0.8421   -1.0052 H         1 <0>         0.1423
      8 N2          2.5491    0.0847   -2.9841 N.pl3     1 <0>        -0.7254
      9 C3          3.4985   -0.7793   -3.5113 C.ar      1 <0>         0.2106
     10 C4          3.9469   -0.7829   -4.8481 C.ar      1 <0>        -0.1640
     11 C5          4.8914   -1.6754   -5.2820 C.ar      1 <0>        -0.0392
     12 C6          5.4451   -2.6167   -4.4099 C.ar      1 <0>        -0.1778
     13 C7          5.0153   -2.6324   -3.0773 C.ar      1 <0>         0.0269
     14 C8          4.0686   -1.7330   -2.6567 C.ar      1 <0>        -0.1523
     15 S2          3.2975   -1.4581   -1.0761 S.3       1 <0>        -0.0967
     16 C9          6.4617   -3.5749   -4.8839 C.2       1 <0>         0.5761
     17 O3          6.9355   -4.3888   -4.1147 O.2       1 <0>        -0.5281
     18 N3          6.8654   -3.5482   -6.1695 N.am      1 <0>        -0.7350
     19 C10         7.8749   -4.4998   -6.6402 C.3       1 <0>         0.1270
     20 C11         8.1513   -4.2571   -8.1254 C.3       1 <0>        -0.1086
     21 C12         9.1898   -5.2359   -8.6096 C.2       1 <0>         0.0821
     22 C13         8.9671   -6.4217   -9.2208 C.ar      1 <0>        -0.1629
     23 C14         7.7384   -7.1281   -9.6024 C.ar      1 <0>        -0.0062
     24 C15         7.8362   -8.3303  -10.2159 C.ar      1 <0>        -0.0752
     25 C16         9.0798   -8.9165  -10.4950 C.ar      1 <0>         0.0535
     26 C17        10.2513   -8.3279  -10.1747 C.ar      1 <0>        -0.1885
     27 C18        10.2665   -7.0617   -9.5271 C.ar      1 <0>         0.3296
     28 N4         11.2539   -6.3011   -9.1209 N.pl3     1 <0>        -0.5773
     29 C19        10.6920   -5.0881   -8.5163 C.3       1 <0>         0.0591
     30 Cl1         6.3853   -9.1691  -10.6688 Cl        1 <0>        -0.0133
     31 H2          1.0001    2.1870    0.0043 H         1 <0>         0.1271
     32 H3         -0.5497    2.1708   -0.8711 H         1 <0>         0.1323
     33 H4         -0.5327    2.1613    0.9088 H         1 <0>         0.1382
     34 H5          0.3237   -0.8815   -2.0994 H         1 <0>         0.4263
     35 H6          2.1257    0.7615   -3.5350 H         1 <0>         0.4190
     36 H7          3.5369   -0.0669   -5.5449 H         1 <0>         0.1330
     37 H8          5.2129   -1.6511   -6.3127 H         1 <0>         0.1297
     38 H9          5.4276   -3.3498   -2.3832 H         1 <0>         0.1458
     39 H10         6.4874   -2.8989   -6.7831 H         1 <0>         0.4048
     40 H11         8.7953   -4.3636   -6.0724 H         1 <0>         0.0805
     41 H12         7.5088   -5.5168   -6.5003 H         1 <0>         0.0808
     42 H13         7.2309   -4.3933   -8.6932 H         1 <0>         0.1181
     43 H14         8.5174   -3.2400   -8.2653 H         1 <0>         0.1224
     44 H15         6.7707   -6.6951   -9.3962 H         1 <0>         0.1707
     45 H16         9.1006   -9.8782  -10.9860 H         1 <0>         0.1708
     46 H17        11.1824   -8.8213  -10.4111 H         1 <0>         0.1711
     47 H18        11.0176   -4.2056   -9.0670 H         1 <0>         0.1801
     48 H19        10.9983   -5.0147   -7.4728 H         1 <0>         0.1798
     49 H20        12.1983   -6.5044   -9.2090 H         1 <0>         0.4585
@<TRIPOS>BOND
     1    1    2 1
     2    1   31 1
     3    1   32 1
     4    1   33 1
     5    2    3 2
     6    2    4 2
     7    2    5 1
     8    5    6 1
     9    5   34 1
    10    6    7 1
    11    6   15 1
    12    6    8 1
    13    8    9 1
    14    8   35 1
    15    9   14 ar
    16    9   10 ar
    17   10   11 ar
    18   10   36 1
    19   11   12 ar
    20   11   37 1
    21   12   13 ar
    22   12   16 1
    23   13   14 ar
    24   13   38 1
    25   14   15 1
    26   16   17 2
    27   16   18 am
    28   18   19 1
    29   18   39 1
    30   19   20 1
    31   19   40 1
    32   19   41 1
    33   20   21 1
    34   20   42 1
    35   20   43 1
    36   21   29 1
    37   21   22 2
    38   22   27 ar
    39   22   23 ar
    40   23   24 ar
    41   23   44 1
    42   24   25 ar
    43   24   30 1
    44   25   26 ar
    45   25   45 1
    46   26   27 ar
    47   26   46 1
    48   27   28 2
    49   28   29 1
    50   28   49 1
    51   29   47 1
    52   29   48 1
@<TRIPOS>MOLECULE
ZINC06590827
   53    56     0     0     0
SMALL
USER_CHARGES
2-[2-(2,5-dioxabicyclo[4.4.0]deca-7,9,11-trien-8-yl)pyrrolidin-1-yl]-N-(4-sulfamoylphenyl)-acetamide
@<TRIPOS>ATOM
      1 C1         -1.0450    0.8224   -4.6923 C.ar      1 <0>        -0.1541
      2 C2         -1.7731    1.1924   -5.8060 C.ar      1 <0>         0.0047
      3 C3         -2.4700    2.3868   -5.8129 C.ar      1 <0>        -0.6788
      4 C4         -2.4447    3.2118   -4.7034 C.ar      1 <0>         0.0028
      5 C5         -1.7225    2.8452   -3.5847 C.ar      1 <0>        -0.1388
      6 C6         -1.0215    1.6464   -3.5747 C.ar      1 <0>         0.1818
      7 N1         -0.2884    1.2723   -2.4431 N.am      1 <0>        -0.6519
      8 C7         -0.7424    1.5835   -1.2128 C.2       1 <0>         0.5036
      9 O1         -1.7416    2.2597   -1.0882 O.2       1 <0>        -0.5016
     10 C8         -0.0086    1.0913    0.0080 C.3       1 <0>        -0.0233
     11 C9         -1.9936    0.8782    1.3859 C.3       1 <0>        -0.0079
     12 C10        -1.9770    0.2042    2.7740 C.3       1 <0>        -0.1413
     13 C11        -0.9022    1.0160    3.5438 C.3       1 <0>        -0.1325
     14 C12         0.1223    1.3207    2.4226 C.3       1 <0>         0.0853
     15 H1          0.7815    0.4664    2.2685 H         1 <0>         0.1523
     16 C13         0.9250    2.5493    2.7652 C.ar      1 <0>        -0.1405
     17 C14         0.3560    3.8029    2.6386 C.ar      1 <0>        -0.1200
     18 C15         1.0877    4.9316    2.9551 C.ar      1 <0>        -0.0971
     19 C16         2.3989    4.8101    3.3911 C.ar      1 <0>         0.0804
     20 C17         2.9718    3.5501    3.5158 C.ar      1 <0>         0.0659
     21 C18         2.2306    2.4211    3.1999 C.ar      1 <0>        -0.0836
     22 O2          4.2539    3.4079    3.9499 O.3       1 <0>        -0.3003
     23 C19         5.0835    4.5736    3.8998 C.3       1 <0>         0.0186
     24 C20         4.2909    5.7532    4.4792 C.3       1 <0>         0.0166
     25 O3          3.1106    5.9315    3.6886 O.3       1 <0>        -0.2986
     26 S1         -3.3917    2.8587   -7.2385 S.o2      1 <0>         2.7008
     27 O4         -3.6988    1.6608   -7.9384 O.2       1 <0>        -0.9567
     28 O5         -4.3963    3.7595   -6.7928 O.2       1 <0>        -0.9572
     29 N2         -2.3744    3.7289   -8.2133 N.pl3     1 <0>        -1.2484
     30 H2         -0.4977   -0.1086   -4.6890 H         1 <0>         0.1430
     31 H3         -1.7948    0.5503   -6.6741 H         1 <0>         0.1549
     32 H4         -2.9900    4.1440   -4.7118 H         1 <0>         0.1526
     33 H5         -1.7025    3.4903   -2.7188 H         1 <0>         0.1492
     34 H6          0.5465    0.7890   -2.5440 H         1 <0>         0.4245
     35 H7          0.0140    0.0015    0.0035 H         1 <0>         0.1661
     36 H8          1.0112    1.4759   -0.0015 H         1 <0>         0.1630
     37 H9         -2.8053    1.6040    1.3358 H         1 <0>         0.1373
     38 H10        -2.1192    0.1241    0.6089 H         1 <0>         0.1292
     39 H11        -2.9492    0.2954    3.2584 H         1 <0>         0.1165
     40 H12        -1.6864   -0.8430    2.6904 H         1 <0>         0.1015
     41 H13        -1.3235    1.9362    3.9485 H         1 <0>         0.1034
     42 H14        -0.4507    0.4154    4.3335 H         1 <0>         0.1227
     43 H15        -0.6635    3.8999    2.2956 H         1 <0>         0.1297
     44 H16         0.6397    5.9096    2.8588 H         1 <0>         0.1491
     45 H17         2.6743    1.4409    3.2935 H         1 <0>         0.1469
     46 H18         5.3562    4.7864    2.8661 H         1 <0>         0.0854
     47 H19         5.9843    4.4102    4.4913 H         1 <0>         0.1342
     48 H20         4.8981    6.6576    4.4423 H         1 <0>         0.1344
     49 H21         4.0132    5.5380    5.5110 H         1 <0>         0.0872
     50 H22        -1.4568    3.8849   -7.9403 H         1 <0>         0.4164
     51 H23        -2.6962    4.0827   -9.0572 H         1 <0>         0.4249
     52 N3         -0.7067    1.5749    1.2276 N.4       1 <0>        -0.3848
     53 H24        -0.8754    2.5839    1.1395 H         1 <0>         0.4325
@<TRIPOS>BOND
     1    1    6 ar
     2    1    2 ar
     3    1   30 1
     4    2    3 ar
     5    2   31 1
     6    3    4 ar
     7    3   26 1
     8    4    5 ar
     9    4   32 1
    10    5    6 ar
    11    5   33 1
    12    6    7 1
    13    7    8 am
    14    7   34 1
    15    8    9 2
    16    8   10 1
    17   10   35 1
    18   10   36 1
    19   10   52 1
    20   11   12 1
    21   11   37 1
    22   11   38 1
    23   11   52 1
    24   12   13 1
    25   12   39 1
    26   12   40 1
    27   13   14 1
    28   13   41 1
    29   13   42 1
    30   14   15 1
    31   14   16 1
    32   14   52 1
    33   16   21 ar
    34   16   17 ar
    35   17   18 ar
    36   17   43 1
    37   18   19 ar
    38   18   44 1
    39   19   25 1
    40   19   20 ar
    41   20   21 ar
    42   20   22 1
    43   21   45 1
    44   22   23 1
    45   23   24 1
    46   23   46 1
    47   23   47 1
    48   24   25 1
    49   24   48 1
    50   24   49 1
    51   26   27 2
    52   26   28 2
    53   26   29 1
    54   29   50 1
    55   29   51 1
    56   52   53 1
@<TRIPOS>MOLECULE
ZINC04489158
   44    46     0     0     0
SMALL
USER_CHARGES
5-(5-bromo-2-hydroxy-benzoyl)-2-imino-N-[[(2R)-tetrahydrofuran-2-yl]methyl]pyran-3-carboxamide
@<TRIPOS>ATOM
      1 C1        -10.2615    8.4277    4.1450 C.ar      1 <0>        -0.0163
      2 C2        -10.5924    7.6557    3.0487 C.ar      1 <0>        -0.1490
      3 C3         -9.6263    6.8785    2.4284 C.ar      1 <0>         0.2053
      4 C4         -8.3124    6.8804    2.9189 C.ar      1 <0>        -0.2720
      5 C5         -7.9919    7.6622    4.0318 C.ar      1 <0>        -0.0086
      6 C6         -8.9642    8.4332    4.6330 C.ar      1 <0>        -0.1339
      7 Br1        -8.5276    9.4969    6.1342 Br        1 <0>        -0.0218
      8 C7         -7.2763    6.0571    2.2675 C.2       1 <0>         0.4560
      9 O1         -6.9063    5.0215    2.7876 O.2       1 <0>        -0.3870
     10 C8         -6.6892    6.4892    0.9863 C.2       1 <0>        -0.2787
     11 C9         -5.7816    5.6429    0.3068 C.2       1 <0>         0.1175
     12 C10        -5.2448    6.0735   -0.8951 C.2       1 <0>        -0.2514
     13 C11        -5.6419    7.3969   -1.4042 C.2       1 <0>         0.5138
     14 N1         -5.1532    7.8419   -2.5318 N.pl3     1 <0>        -0.6881
     15 O2         -6.5185    8.1451   -0.7010 O.3       1 <0>        -0.1937
     16 C12        -7.0267    7.7153    0.4566 C.2       1 <0>         0.2269
     17 C13        -4.2972    5.2326   -1.6413 C.2       1 <0>         0.5812
     18 O3         -3.8349    5.6257   -2.6957 O.2       1 <0>        -0.5394
     19 N2         -3.9409    4.0263   -1.1572 N.am      1 <0>        -0.7014
     20 C14        -2.9967    3.1884   -1.9007 C.3       1 <0>         0.1180
     21 C15        -2.7644    1.8823   -1.1385 C.3       1 <0>         0.0565
     22 H1         -3.7434    1.4154   -0.9553 H         1 <0>         0.0809
     23 C16        -1.7705    0.9818   -1.9052 C.3       1 <0>        -0.1454
     24 C17        -0.9307    0.3166   -0.7918 C.3       1 <0>        -0.1577
     25 C18        -1.5132    0.8935    0.5175 C.3       1 <0>         0.0466
     26 O4         -2.1218    2.1464    0.1276 O.3       1 <0>        -0.3738
     27 O5         -9.9507    6.1191    1.3520 O.3       1 <0>        -0.4861
     28 H2        -11.0180    9.0311    4.6247 H         1 <0>         0.1527
     29 H3        -11.6054    7.6572    2.6742 H         1 <0>         0.1538
     30 H4         -6.9833    7.6655    4.4181 H         1 <0>         0.1450
     31 H5         -5.5131    4.6805    0.7169 H         1 <0>         0.1866
     32 H6         -5.4524    8.8311   -2.9086 H         1 <0>         0.4720
     33 H7         -7.7211    8.3458    0.9919 H         1 <0>         0.2459
     34 H8         -4.3590    3.6709   -0.2039 H         1 <0>         0.4352
     35 H9         -3.4099    2.9641   -2.8952 H         1 <0>         0.0972
     36 H10        -2.0416    3.7226   -2.0124 H         1 <0>         0.0908
     37 H11        -2.3283    0.2435   -2.5000 H         1 <0>         0.0852
     38 H12        -1.1548    1.6015   -2.5738 H         1 <0>         0.0828
     39 H13        -1.0458   -0.7759   -0.8488 H         1 <0>         0.0841
     40 H14         0.1288    0.5810   -0.9241 H         1 <0>         0.0808
     41 H15        -2.2523    0.1913    0.9306 H         1 <0>         0.0673
     42 H16        -0.7021    1.0423    1.2454 H         1 <0>         0.0998
     43 H17        -9.1823    5.5033    0.8616 H         1 <0>         0.4265
     44 H18        -4.4427    7.2272   -3.1040 H         1 <0>         0.4957
@<TRIPOS>BOND
     1    1    6 ar
     2    1    2 ar
     3    1   28 1
     4    2    3 ar
     5    2   29 1
     6    3    4 ar
     7    3   27 1
     8    4    5 ar
     9    4    8 1
    10    5    6 ar
    11    5   30 1
    12    6    7 1
    13    8    9 2
    14    8   10 1
    15   10   16 2
    16   10   11 1
    17   11   12 2
    18   11   31 1
    19   12   13 1
    20   12   17 1
    21   13   14 2
    22   13   15 1
    23   14   32 1
    24   14   44 1
    25   15   16 1
    26   16   33 1
    27   17   18 2
    28   17   19 am
    29   19   20 1
    30   19   34 1
    31   20   21 1
    32   20   35 1
    33   20   36 1
    34   21   22 1
    35   21   26 1
    36   21   23 1
    37   23   24 1
    38   23   37 1
    39   23   38 1
    40   24   25 1
    41   24   39 1
    42   24   40 1
    43   25   26 1
    44   25   41 1
    45   25   42 1
    46   27   43 1
@<TRIPOS>MOLECULE
ZINC06488792
   51    53     0     0     0
SMALL
USER_CHARGES

@<TRIPOS>ATOM
      1 C1         -0.2842    1.4253   -2.1904 C.3       1 <0>        -0.1538
      2 C2         -0.1375   -0.0589   -1.8487 C.3       1 <0>         0.0547
      3 O1         -1.3825   -0.5599   -1.3577 O.3       1 <0>        -0.3313
      4 C3         -1.4240   -1.8727   -1.0058 C.ar      1 <0>         0.1092
      5 C4         -0.2901   -2.6597   -1.1250 C.ar      1 <0>        -0.1858
      6 C5         -0.3338   -3.9944   -0.7669 C.ar      1 <0>        -0.0786
      7 C6         -1.5076   -4.5480   -0.2896 C.ar      1 <0>        -0.1317
      8 C7         -2.6431   -3.7698   -0.1676 C.ar      1 <0>        -0.0947
      9 C8         -2.6053   -2.4282   -0.5191 C.ar      1 <0>         0.0915
     10 N1         -3.7530   -1.6359   -0.3905 N.am      1 <0>        -0.6572
     11 C9         -4.9685   -2.2152   -0.3309 C.2       1 <0>         0.5695
     12 O2         -5.0669   -3.4275   -0.3632 O.2       1 <0>        -0.4688
     13 C10        -6.1753   -1.3823   -0.2269 C.2       1 <0>        -0.2661
     14 C11        -7.4482   -1.9357   -0.2768 C.2       1 <0>         0.1721
     15 C12        -8.5589   -1.0610   -0.1969 C.2       1 <0>        -0.2544
     16 C13        -8.3754    0.3038   -0.2809 C.2       1 <0>         0.2171
     17 O3         -7.1538    0.8190   -0.4886 O.3       1 <0>        -0.1908
     18 C14        -6.0924    0.0852   -0.0577 C.2       1 <0>         0.5177
     19 N2         -5.0434    0.6505    0.4791 N.pl3     1 <0>        -0.6830
     20 C15        -9.9157   -1.6105   -0.0238 C.2       1 <0>         0.4729
     21 O4        -10.8614   -0.8600    0.1253 O.2       1 <0>        -0.4034
     22 C16       -10.1267   -3.0702   -0.0313 C.ar      1 <0>        -0.1593
     23 C17       -10.6517   -3.6983   -1.1644 C.ar      1 <0>        -0.0985
     24 C18       -10.8467   -5.0665   -1.1641 C.ar      1 <0>         0.1316
     25 C19       -10.5223   -5.8186   -0.0411 C.ar      1 <0>        -0.1625
     26 C20       -10.0038   -5.2066    1.0824 C.ar      1 <0>        -0.0941
     27 C21        -9.7964   -3.8357    1.0956 C.ar      1 <0>         0.0990
     28 O5         -9.2808   -3.2358    2.1986 O.3       1 <0>        -0.4972
     29 O6        -11.3578   -5.6787   -2.2655 O.3       1 <0>        -0.3095
     30 C22       -11.5336   -7.0952   -2.1976 C.3       1 <0>         0.0217
     31 H1          0.6654    1.8074   -2.5649 H         1 <0>         0.0863
     32 H2         -1.0520    1.5482   -2.9542 H         1 <0>         0.0658
     33 H3         -0.5704    1.9776   -1.2953 H         1 <0>         0.0647
     34 H4          0.1487   -0.6112   -2.7438 H         1 <0>         0.0689
     35 H5          0.6302   -0.1817   -1.0849 H         1 <0>         0.0690
     36 H6          0.6281   -2.2307   -1.4982 H         1 <0>         0.1382
     37 H7          0.5511   -4.6063   -0.8606 H         1 <0>         0.1345
     38 H8         -1.5371   -5.5912   -0.0117 H         1 <0>         0.1363
     39 H9         -3.5585   -4.2048    0.2055 H         1 <0>         0.1672
     40 H10        -3.6731   -0.6703   -0.3443 H         1 <0>         0.3970
     41 H11        -7.5869   -3.0023   -0.3742 H         1 <0>         0.1987
     42 H12        -9.2236    0.9644   -0.1780 H         1 <0>         0.2571
     43 H13        -4.3409    0.1031    0.8635 H         1 <0>         0.4588
     44 H14       -10.9047   -3.1157   -2.0378 H         1 <0>         0.1459
     45 H15       -10.6771   -6.8875   -0.0474 H         1 <0>         0.1453
     46 H16        -9.7548   -5.7976    1.9514 H         1 <0>         0.1467
     47 H17        -9.9473   -2.9457    2.8363 H         1 <0>         0.3991
     48 H18       -11.9474   -7.4555   -3.1395 H         1 <0>         0.1095
     49 H19       -10.5704   -7.5727   -2.0176 H         1 <0>         0.0619
     50 H20       -12.2172   -7.3379   -1.3840 H         1 <0>         0.0621
     51 H21        -4.9674    1.6174    0.4931 H         1 <0>         0.4510
@<TRIPOS>BOND
     1    1    2 1
     2    1   31 1
     3    1   32 1
     4    1   33 1
     5    2    3 1
     6    2   34 1
     7    2   35 1
     8    3    4 1
     9    4    9 ar
    10    4    5 ar
    11    5    6 ar
    12    5   36 1
    13    6    7 ar
    14    6   37 1
    15    7    8 ar
    16    7   38 1
    17    8    9 ar
    18    8   39 1
    19    9   10 1
    20   10   11 am
    21   10   40 1
    22   11   12 2
    23   11   13 1
    24   13   18 1
    25   13   14 2
    26   14   15 1
    27   14   41 1
    28   15   16 2
    29   15   20 1
    30   16   17 1
    31   16   42 1
    32   17   18 1
    33   18   19 2
    34   19   43 1
    35   19   51 1
    36   20   21 2
    37   20   22 1
    38   22   27 ar
    39   22   23 ar
    40   23   24 ar
    41   23   44 1
    42   24   25 ar
    43   24   29 1
    44   25   26 ar
    45   25   45 1
    46   26   27 ar
    47   26   46 1
    48   27   28 1
    49   28   47 1
    50   29   30 1
    51   30   48 1
    52   30   49 1
    53   30   50 1
@<TRIPOS>MOLECULE
ZINC41251247
   50    52     0     0     0
SMALL
USER_CHARGES

@<TRIPOS>ATOM
      1 C1         -0.0168    1.3890    0.0097 C.ar      1 <0>        -0.0711
      2 C2          1.1704    2.0928    0.0021 C.ar      1 <0>        -0.0692
      3 C3          2.3775    1.4176   -0.0135 C.ar      1 <0>        -0.1442
      4 C4          2.4021    0.0346   -0.0212 C.ar      1 <0>        -0.0726
      5 C5          1.2208   -0.6791   -0.0137 C.ar      1 <0>        -0.0628
      6 C6          0.0021   -0.0041    0.0020 C.ar      1 <0>        -0.0281
      7 C7         -1.2715   -0.7663    0.0106 C.2       1 <0>         0.3037
      8 N1         -1.3836   -2.1066    0.0099 N.2       1 <0>        -0.4834
      9 C8         -2.6403   -2.4490    0.0188 C.2       1 <0>         0.2239
     10 O1         -3.3838   -1.3352    0.0255 O.3       1 <0>        -0.0802
     11 N2         -2.4736   -0.2456    0.0258 N.2       1 <0>        -0.2837
     12 C9         -3.1685   -3.8604    0.0211 C.3       1 <0>         0.0948
     13 N3         -3.3298   -4.3206    1.4068 N.4       1 <0>        -0.3872
     14 C10        -4.3574   -3.5115    2.0729 C.3       1 <0>        -0.0160
     15 C11        -4.4724   -3.9327    3.5395 C.3       1 <0>        -0.1250
     16 C12        -4.8599   -5.4126    3.6110 C.3       1 <0>        -0.1207
     17 C13        -3.8203   -6.2397    2.8493 C.3       1 <0>        -0.1417
     18 C14        -3.7295   -5.7330    1.4083 C.3       1 <0>        -0.0027
     19 C15        -4.8986   -5.8544    5.0512 C.2       1 <0>         0.5193
     20 O2         -4.6416   -5.0645    5.9349 O.2       1 <0>        -0.5246
     21 N4         -5.2187   -7.1273    5.3573 N.am      1 <0>        -0.7127
     22 C16        -5.2562   -7.5568    6.7574 C.3       1 <0>         0.0943
     23 C17        -5.6377   -9.0131    6.8260 C.2       1 <0>         0.5141
     24 O3         -5.8567   -9.6314    5.8058 O.2       1 <0>        -0.5428
     25 N5         -5.7356   -9.6285    8.0211 N.am      1 <0>        -0.8436
     26 C18         3.6706    2.1915   -0.0227 C.3       1 <0>         0.5058
     27 F1          4.0841    2.4243    1.2934 F         1 <0>        -0.1698
     28 F2          4.6506    1.4541   -0.6958 F         1 <0>        -0.1709
     29 F3          3.4776    3.4144   -0.6741 F         1 <0>        -0.1704
     30 H1         -0.9587    1.9172    0.0260 H         1 <0>         0.1475
     31 H2          1.1570    3.1727    0.0081 H         1 <0>         0.1532
     32 H3          3.3473   -0.4876   -0.0333 H         1 <0>         0.1526
     33 H4          1.2411   -1.7589   -0.0204 H         1 <0>         0.1513
     34 H5         -4.1331   -3.8882   -0.4857 H         1 <0>         0.1723
     35 H6         -2.4661   -4.5121   -0.4987 H         1 <0>         0.1804
     36 H7         -4.0818   -2.4583    2.0184 H         1 <0>         0.1302
     37 H8         -5.3160   -3.6614    1.5761 H         1 <0>         0.1431
     38 H9         -3.5144   -3.7829    4.0374 H         1 <0>         0.0992
     39 H10        -5.2371   -3.3320    4.0319 H         1 <0>         0.1250
     40 H11        -5.8414   -5.5546    3.1585 H         1 <0>         0.1222
     41 H12        -2.8488   -6.1378    3.3328 H         1 <0>         0.0990
     42 H13        -4.1190   -7.2880    2.8483 H         1 <0>         0.1250
     43 H14        -4.7015   -5.8356    0.9256 H         1 <0>         0.1419
     44 H15        -2.9904   -6.3199    0.8631 H         1 <0>         0.1453
     45 H16        -5.4242   -7.7591    4.6505 H         1 <0>         0.4137
     46 H17        -4.2730   -7.4172    7.2067 H         1 <0>         0.1064
     47 H18        -5.9915   -6.9627    7.3001 H         1 <0>         0.1069
     48 H19        -5.5605   -9.1340    8.8370 H         1 <0>         0.4085
     49 H20        -5.9812  -10.5659    8.0652 H         1 <0>         0.4122
     50 H21        -2.4542   -4.2194    1.8978 H         1 <0>         0.4315
@<TRIPOS>BOND
     1    1    6 ar
     2    1    2 ar
     3    1   30 1
     4    2    3 ar
     5    2   31 1
     6    3    4 ar
     7    3   26 1
     8    4    5 ar
     9    4   32 1
    10    5    6 ar
    11    5   33 1
    12    6    7 1
    13    7   11 2
    14    7    8 1
    15    8    9 2
    16    9   10 1
    17    9   12 1
    18   10   11 1
    19   12   13 1
    20   12   34 1
    21   12   35 1
    22   13   18 1
    23   13   14 1
    24   13   50 1
    25   14   15 1
    26   14   36 1
    27   14   37 1
    28   15   16 1
    29   15   38 1
    30   15   39 1
    31   16   17 1
    32   16   19 1
    33   16   40 1
    34   17   18 1
    35   17   41 1
    36   17   42 1
    37   18   43 1
    38   18   44 1
    39   19   20 2
    40   19   21 am
    41   21   22 1
    42   21   45 1
    43   22   23 1
    44   22   46 1
    45   22   47 1
    46   23   24 2
    47   23   25 am
    48   25   48 1
    49   25   49 1
    50   26   27 1
    51   26   28 1
    52   26   29 1
@<TRIPOS>MOLECULE
ZINC63150295
   51    53     0     0     0
SMALL
USER_CHARGES

@<TRIPOS>ATOM
      1 C1         -0.0163    1.3482    0.0095 C.ar      1 <0>        -0.1454
      2 C2          1.1658    2.1014    0.0022 C.ar      1 <0>         0.0550
      3 C3          2.3912    1.5352   -0.0125 C.ar      1 <0>        -0.2084
      4 C4          2.5288    0.1198   -0.0218 C.ar      1 <0>         0.3313
      5 N1          3.5868   -0.6543   -0.0369 N.pl3     1 <0>        -0.5783
      6 C5          3.1432   -2.0528   -0.0408 C.3       1 <0>         0.0644
      7 C6          1.6315   -2.0084   -0.0255 C.2       1 <0>         0.0672
      8 C7          1.2951   -0.6984   -0.0144 C.ar      1 <0>        -0.1508
      9 C8          0.0021   -0.0041    0.0020 C.ar      1 <0>        -0.0177
     10 C9          0.6905   -3.1856   -0.0239 C.3       1 <0>        -0.0833
     11 C10         0.4600   -3.6463   -1.4401 C.2       1 <0>         0.4738
     12 O1          1.0041   -3.0773   -2.3567 O.2       1 <0>        -0.4992
     13 O2         -0.3496   -4.6890   -1.6833 O.3       1 <0>        -0.3148
     14 C11        -0.5224   -5.0714   -3.0493 C.3       1 <0>         0.0483
     15 C12        -1.4575   -6.2507   -3.1263 C.2       1 <0>         0.5146
     16 O3         -1.9295   -6.7177   -2.1113 O.2       1 <0>        -0.5102
     17 N2         -1.7693   -6.7865   -4.3230 N.am      1 <0>        -0.7245
     18 C13        -2.6783   -7.9329   -4.3979 C.3       1 <0>         0.1254
     19 C14        -2.8633   -8.3424   -5.8604 C.3       1 <0>        -0.1012
     20 C15        -3.7984   -9.5217   -5.9375 C.ar      1 <0>        -0.0278
     21 C16        -3.2954  -10.8078   -5.8764 C.ar      1 <0>        -0.1343
     22 C17        -4.1531  -11.8896   -5.9470 C.ar      1 <0>        -0.0142
     23 C18        -5.5139  -11.6852   -6.0783 C.ar      1 <0>        -0.6743
     24 C19        -6.0171  -10.3991   -6.1385 C.ar      1 <0>        -0.0142
     25 C20        -5.1597   -9.3173   -6.0635 C.ar      1 <0>        -0.1343
     26 S1         -6.6071  -13.0640   -6.1696 S.o2      1 <0>         2.7001
     27 O4         -7.7765  -12.6117   -6.8383 O.2       1 <0>        -0.9604
     28 O5         -5.8374  -14.1622   -6.6396 O.2       1 <0>        -0.9604
     29 N3         -7.0606  -13.4327   -4.6201 N.pl3     1 <0>        -1.2493
     30 H1         -0.9665    1.8612    0.0259 H         1 <0>         0.1596
     31 H2          1.0933    3.1789    0.0083 H         1 <0>         0.1626
     32 H3          3.2717    2.1606   -0.0175 H         1 <0>         0.1624
     33 H4          3.4952   -2.5561   -0.9413 H         1 <0>         0.1770
     34 H5          3.5129   -2.5667    0.8465 H         1 <0>         0.1773
     35 H6         -0.9210   -0.5647    0.0081 H         1 <0>         0.1609
     36 H7          1.1268   -3.9987    0.5563 H         1 <0>         0.1559
     37 H8         -0.2596   -2.8905    0.4214 H         1 <0>         0.1526
     38 H9         -0.9434   -4.2367   -3.6098 H         1 <0>         0.1071
     39 H10         0.4430   -5.3449   -3.4749 H         1 <0>         0.1071
     40 H11        -1.3918   -6.4130   -5.1348 H         1 <0>         0.4057
     41 H12        -2.2574   -8.7676   -3.8374 H         1 <0>         0.0776
     42 H13        -3.6438   -7.6595   -3.9723 H         1 <0>         0.0777
     43 H14        -3.2843   -7.5077   -6.4210 H         1 <0>         0.0891
     44 H15        -1.8978   -8.6159   -6.2861 H         1 <0>         0.0891
     45 H16        -2.2322  -10.9675   -5.7738 H         1 <0>         0.1357
     46 H17        -3.7600  -12.8944   -5.9000 H         1 <0>         0.1463
     47 H18        -7.0802  -10.2394   -6.2414 H         1 <0>         0.1463
     48 H19        -5.5532   -8.3124   -6.1068 H         1 <0>         0.1358
     49 H20        -6.7191  -12.9104   -3.8775 H         1 <0>         0.4164
     50 H21        -7.6678  -14.1709   -4.4551 H         1 <0>         0.4230
     51 H22         4.5087   -0.3528   -0.0446 H         1 <0>         0.4573
@<TRIPOS>BOND
     1    1    9 ar
     2    1    2 ar
     3    1   30 1
     4    2    3 ar
     5    2   31 1
     6    3    4 ar
     7    3   32 1
     8    4    8 ar
     9    4    5 2
    10    5    6 1
    11    5   51 1
    12    6    7 1
    13    6   33 1
    14    6   34 1
    15    7    8 2
    16    7   10 1
    17    8    9 ar
    18    9   35 1
    19   10   11 1
    20   10   36 1
    21   10   37 1
    22   11   12 2
    23   11   13 1
    24   13   14 1
    25   14   15 1
    26   14   38 1
    27   14   39 1
    28   15   16 2
    29   15   17 am
    30   17   18 1
    31   17   40 1
    32   18   19 1
    33   18   41 1
    34   18   42 1
    35   19   20 1
    36   19   43 1
    37   19   44 1
    38   20   25 ar
    39   20   21 ar
    40   21   22 ar
    41   21   45 1
    42   22   23 ar
    43   22   46 1
    44   23   24 ar
    45   23   26 1
    46   24   25 ar
    47   24   47 1
    48   25   48 1
    49   26   27 2
    50   26   28 2
    51   26   29 1
    52   29   49 1
    53   29   50 1
@<TRIPOS>MOLECULE
ZINC12995198
   53    55     0     0     0
SMALL
USER_CHARGES
(2S)-2-[2-(4-methoxyphenoxy)ethyl-methyl-amino]-N-(2-oxo-1,3-dihydrobenzimidazol-5-yl)propanamide
@<TRIPOS>ATOM
      1 C1          0.4891    7.6625    0.6133 C.3       1 <0>        -0.1796
      2 C2          1.5984    7.2669    1.5899 C.3       1 <0>         0.0036
      3 H1          2.4714    7.8979    1.4231 H         1 <0>         0.1611
      4 C3          1.1106    7.4477    3.0042 C.2       1 <0>         0.5051
      5 O1          1.0703    6.4982    3.7579 O.2       1 <0>        -0.5052
      6 N1          0.7193    8.6645    3.4317 N.am      1 <0>        -0.6391
      7 C4          0.1718    8.8143    4.7124 C.ar      1 <0>         0.1301
      8 C5          0.3955    9.9839    5.4300 C.ar      1 <0>        -0.1184
      9 C6         -0.1411   10.1377    6.6924 C.ar      1 <0>        -0.0807
     10 C7         -0.9060    9.1228    7.2476 C.ar      1 <0>         0.0944
     11 C8         -1.1324    7.9469    6.5294 C.ar      1 <0>         0.1110
     12 C9         -0.5968    7.7980    5.2597 C.ar      1 <0>        -0.1021
     13 N2         -1.9220    7.1290    7.3343 N.am      1 <0>        -0.6403
     14 H2         -2.2422    6.2433    7.1022 H         1 <0>         0.4384
     15 C10        -2.1652    7.7768    8.4892 C.2       1 <0>         0.6853
     16 O2         -2.8267    7.3392    9.4122 O.2       1 <0>        -0.5391
     17 N3         -1.5661    8.9823    8.4681 N.am      1 <0>        -0.6398
     18 H3         -1.5892    9.6405    9.1802 H         1 <0>         0.4410
     19 C11         0.7795    4.9926    1.4489 C.3       1 <0>        -0.0528
     20 C12         2.6609    5.6882    0.0927 C.3       1 <0>         0.0001
     21 C13         4.0980    6.1966    0.2230 C.3       1 <0>         0.0242
     22 O3          4.8072    5.3849    1.1613 O.3       1 <0>        -0.3272
     23 C14         6.1081    5.7046    1.3948 C.ar      1 <0>         0.0716
     24 C15         6.8550    4.9580    2.2940 C.ar      1 <0>        -0.0974
     25 C16         8.1766    5.2825    2.5309 C.ar      1 <0>        -0.1109
     26 C17         8.7567    6.3548    1.8696 C.ar      1 <0>         0.1128
     27 C18         8.0096    7.1017    0.9709 C.ar      1 <0>        -0.1716
     28 C19         6.6880    6.7773    0.7340 C.ar      1 <0>        -0.1604
     29 O4         10.0577    6.6742    2.1028 O.3       1 <0>        -0.3123
     30 C20        10.5900    7.7907    1.3871 C.3       1 <0>         0.0245
     31 H4          0.8419    7.5317   -0.4097 H         1 <0>         0.0982
     32 H5         -0.3839    7.0315    0.7800 H         1 <0>         0.0938
     33 H6          0.2189    8.7062    0.7738 H         1 <0>         0.1121
     34 H7          0.8166    9.4365    2.8525 H         1 <0>         0.4214
     35 H8          0.9913   10.7746    4.9984 H         1 <0>         0.1423
     36 H9          0.0342   11.0476    7.2471 H         1 <0>         0.1453
     37 H10        -0.7739    6.8914    4.7000 H         1 <0>         0.1411
     38 H11         1.0945    3.9493    1.4664 H         1 <0>         0.1285
     39 H12         0.2204    5.2186    2.3568 H         1 <0>         0.1331
     40 H13         0.1457    5.1662    0.5792 H         1 <0>         0.1247
     41 H14         2.1439    6.2546   -0.6819 H         1 <0>         0.1535
     42 H15         2.6721    4.6319   -0.1760 H         1 <0>         0.1496
     43 H16         4.0879    7.2295    0.5709 H         1 <0>         0.0814
     44 H17         4.5911    6.1450   -0.7477 H         1 <0>         0.1113
     45 H18         6.4046    4.1202    2.8055 H         1 <0>         0.1414
     46 H19         8.7584    4.7009    3.2307 H         1 <0>         0.1456
     47 H20         8.4611    7.9372    0.4565 H         1 <0>         0.1368
     48 H21         6.1064    7.3586    0.0339 H         1 <0>         0.1295
     49 H22        10.5225    7.6012    0.3158 H         1 <0>         0.0581
     50 H23        10.0198    8.6861    1.6344 H         1 <0>         0.0573
     51 H24        11.6338    7.9364    1.6652 H         1 <0>         0.1071
     52 N4          1.9805    5.8524    1.3946 N.4       1 <0>        -0.3829
     53 H25         2.6241    5.5742    2.1446 H         1 <0>         0.4445
@<TRIPOS>BOND
     1    1    2 1
     2    1   31 1
     3    1   32 1
     4    1   33 1
     5    2    3 1
     6    2    4 1
     7    2   52 1
     8    4    5 2
     9    4    6 am
    10    6    7 1
    11    6   34 1
    12    7   12 ar
    13    7    8 ar
    14    8    9 ar
    15    8   35 1
    16    9   10 ar
    17    9   36 1
    18   10   17 1
    19   10   11 ar
    20   11   12 ar
    21   11   13 1
    22   12   37 1
    23   13   14 1
    24   13   15 am
    25   15   16 2
    26   15   17 am
    27   17   18 1
    28   19   38 1
    29   19   39 1
    30   19   40 1
    31   19   52 1
    32   20   21 1
    33   20   41 1
    34   20   42 1
    35   20   52 1
    36   21   22 1
    37   21   43 1
    38   21   44 1
    39   22   23 1
    40   23   28 ar
    41   23   24 ar
    42   24   25 ar
    43   24   45 1
    44   25   26 ar
    45   25   46 1
    46   26   27 ar
    47   26   29 1
    48   27   28 ar
    49   27   47 1
    50   28   48 1
    51   29   30 1
    52   30   49 1
    53   30   50 1
    54   30   51 1
    55   52   53 1
@<TRIPOS>MOLECULE
ZINC45569408
   64    66     0     0     0
SMALL
USER_CHARGES

@<TRIPOS>ATOM
      1 C1         -0.3195    3.1954   -0.9350 C.3       1 <0>         0.0224
      2 O1         -0.2591    1.7987   -0.6392 O.3       1 <0>        -0.2981
      3 C2          0.4268    1.0120   -1.5111 C.ar      1 <0>         0.1067
      4 C3          1.0304    1.5732   -2.6191 C.ar      1 <0>        -0.1412
      5 C4          1.7355    0.7604   -3.5142 C.ar      1 <0>        -0.0949
      6 C5          1.8249   -0.6167   -3.2812 C.ar      1 <0>        -0.0872
      7 C6          1.2198   -1.1680   -2.1734 C.ar      1 <0>        -0.1829
      8 C7          0.5252   -0.3600   -1.2829 C.ar      1 <0>         0.1274
      9 O2         -0.0647   -0.9086   -0.1893 O.3       1 <0>        -0.2716
     10 C8          0.0753   -2.3201   -0.0161 C.3       1 <0>         0.0364
     11 C9         -0.6390   -2.7453    1.2409 C.2       1 <0>         0.5170
     12 O3         -1.2116   -1.9207    1.9214 O.2       1 <0>        -0.5098
     13 N1         -0.6416   -4.0419    1.6088 N.am      1 <0>        -0.8493
     14 C10         2.3799    1.3515   -4.6959 C.2       1 <0>         0.0299
     15 C11         3.0595    0.5658   -5.5579 C.2       1 <0>        -0.2596
     16 C12         3.7006    1.1538   -6.7335 C.2       1 <0>         0.5471
     17 O4          3.6214    2.3517   -6.9347 O.2       1 <0>        -0.5190
     18 N2          4.3791    0.3694   -7.5942 N.am      1 <0>        -0.7464
     19 C13         5.0213    0.9584   -8.7718 C.3       1 <0>         0.1415
     20 C14         5.5905   -0.1381   -9.6348 C.ar      1 <0>        -0.0881
     21 C15         6.9336   -0.4554   -9.5529 C.ar      1 <0>        -0.0919
     22 C16         7.4556   -1.4611  -10.3444 C.ar      1 <0>        -0.0844
     23 C17         6.6345   -2.1501  -11.2177 C.ar      1 <0>        -0.1031
     24 C18         5.2916   -1.8334  -11.2989 C.ar      1 <0>        -0.0925
     25 C19         4.7686   -0.8303  -10.5041 C.ar      1 <0>        -0.1418
     26 C20         3.3033   -0.4886  -10.5888 C.3       1 <0>         0.0363
     27 N3          2.5820   -1.1504   -9.4934 N.4       1 <0>        -0.3838
     28 C21         2.6412   -2.6052   -9.6792 C.3       1 <0>        -0.0148
     29 C22         1.9614   -3.3020   -8.4986 C.3       1 <0>        -0.1453
     30 C23         0.4988   -2.8546   -8.4221 C.3       1 <0>        -0.1380
     31 C24         0.4475   -1.3287   -8.3032 C.3       1 <0>        -0.1470
     32 C25         1.1834   -0.7050   -9.4911 C.3       1 <0>        -0.0108
     33 H1          0.6904    3.6042   -0.9661 H         1 <0>         0.0583
     34 H2         -0.8005    3.3416   -1.9021 H         1 <0>         0.0575
     35 H3         -0.8945    3.7059   -0.1624 H         1 <0>         0.1078
     36 H4          0.9583    2.6364   -2.7948 H         1 <0>         0.1452
     37 H5          2.3679   -1.2469   -3.9700 H         1 <0>         0.1309
     38 H6          1.2891   -2.2309   -1.9948 H         1 <0>         0.1414
     39 H7         -0.3585   -2.8361   -0.8727 H         1 <0>         0.0963
     40 H8          1.1324   -2.5734    0.0634 H         1 <0>         0.0973
     41 H9         -0.1837   -4.7014    1.0645 H         1 <0>         0.4029
     42 H10        -1.1014   -4.3155    2.4179 H         1 <0>         0.4126
     43 H11         2.3097    2.4143   -4.8744 H         1 <0>         0.1389
     44 H12         3.1298   -0.4970   -5.3794 H         1 <0>         0.1304
     45 H13         4.4422   -0.5852   -7.4339 H         1 <0>         0.3952
     46 H14         4.2849    1.5245   -9.3423 H         1 <0>         0.0873
     47 H15         5.8239    1.6237   -8.4534 H         1 <0>         0.0944
     48 H16         7.5750    0.0827   -8.8708 H         1 <0>         0.1392
     49 H17         8.5050   -1.7085  -10.2810 H         1 <0>         0.1398
     50 H18         7.0425   -2.9354  -11.8367 H         1 <0>         0.1395
     51 H19         4.6503   -2.3714  -11.9813 H         1 <0>         0.1356
     52 H20         3.1766    0.5909  -10.5073 H         1 <0>         0.1374
     53 H21         2.9052   -0.8300  -11.5444 H         1 <0>         0.1396
     54 H22         2.1291   -2.8742  -10.6031 H         1 <0>         0.1310
     55 H23         3.6826   -2.9217   -9.7366 H         1 <0>         0.1291
     56 H24         2.0048   -4.3820   -8.6393 H         1 <0>         0.1138
     57 H25         2.4728   -3.0339   -7.5741 H         1 <0>         0.0839
     58 H26        -0.0258   -3.1677   -9.3248 H         1 <0>         0.0835
     59 H27         0.0252   -3.3043   -7.5494 H         1 <0>         0.0954
     60 H28        -0.5912   -0.9982   -8.3043 H         1 <0>         0.1147
     61 H29         0.9276   -1.0197   -7.3747 H         1 <0>         0.0868
     62 H30         1.1487    0.3814   -9.4096 H         1 <0>         0.1288
     63 H31         0.7025   -1.0145  -10.4190 H         1 <0>         0.1320
     64 H32         3.0126   -0.9079   -8.6137 H         1 <0>         0.4105
@<TRIPOS>BOND
     1    1    2 1
     2    1   33 1
     3    1   34 1
     4    1   35 1
     5    2    3 1
     6    3    8 ar
     7    3    4 ar
     8    4    5 ar
     9    4   36 1
    10    5    6 ar
    11    5   14 1
    12    6    7 ar
    13    6   37 1
    14    7    8 ar
    15    7   38 1
    16    8    9 1
    17    9   10 1
    18   10   11 1
    19   10   39 1
    20   10   40 1
    21   11   12 2
    22   11   13 am
    23   13   41 1
    24   13   42 1
    25   14   15 2
    26   14   43 1
    27   15   16 1
    28   15   44 1
    29   16   17 2
    30   16   18 am
    31   18   19 1
    32   18   45 1
    33   19   20 1
    34   19   46 1
    35   19   47 1
    36   20   25 ar
    37   20   21 ar
    38   21   22 ar
    39   21   48 1
    40   22   23 ar
    41   22   49 1
    42   23   24 ar
    43   23   50 1
    44   24   25 ar
    45   24   51 1
    46   25   26 1
    47   26   27 1
    48   26   52 1
    49   26   53 1
    50   27   32 1
    51   27   28 1
    52   27   64 1
    53   28   29 1
    54   28   54 1
    55   28   55 1
    56   29   30 1
    57   29   56 1
    58   29   57 1
    59   30   31 1
    60   30   58 1
    61   30   59 1
    62   31   32 1
    63   31   60 1
    64   31   61 1
    65   32   62 1
    66   32   63 1
@<TRIPOS>MOLECULE
ZINC50059424
   58    60     0     0     0
SMALL
USER_CHARGES

@<TRIPOS>ATOM
      1 C1          0.5471   -1.2768   -2.0190 C.1       1 <0>        -0.1564
      2 C2          0.5630   -0.1089   -2.1378 C.1       1 <0>        -0.2218
      3 C3          0.5830    1.3554   -2.2868 C.3       1 <0>         0.2312
      4 N1          1.7929    1.8936   -1.6601 N.am      1 <0>        -0.7283
      5 C4          2.0254    3.2211   -1.6736 C.2       1 <0>         0.5196
      6 O1          1.2330    3.9701   -2.2046 O.2       1 <0>        -0.5284
      7 C5          3.2700    3.7746   -1.0290 C.3       1 <0>        -0.1532
      8 C6          3.2907    5.2967   -1.1838 C.3       1 <0>         0.1505
      9 N2          4.5006    5.8348   -0.5572 N.am      1 <0>        -0.7405
     10 C7          4.7331    7.1623   -0.5707 C.2       1 <0>         0.7042
     11 O2          3.9387    7.9132   -1.1030 O.2       1 <0>        -0.5604
     12 N3          5.8462    7.6574    0.0058 N.am      1 <0>        -0.6890
     13 C8          6.1351    9.0234   -0.0892 C.ar      1 <0>         0.2149
     14 C9          5.1043    9.9550   -0.0719 C.ar      1 <0>        -0.1553
     15 C10         5.3884   11.3037   -0.1652 C.ar      1 <0>        -0.0513
     16 C11         6.6977   11.7309   -0.2764 C.ar      1 <0>        -0.2022
     17 C12         7.7330   10.8044   -0.2948 C.ar      1 <0>         0.2150
     18 C13         7.4510    9.4490   -0.1950 C.ar      1 <0>        -0.2172
     19 N4          9.0563   11.2368   -0.4081 N.pl3     1 <0>        -0.6436
     20 C14        10.1572   10.2723   -0.5550 C.3       1 <0>         0.1015
     21 C15        11.0180   10.6960   -1.7497 C.3       1 <0>        -0.0229
     22 N5         11.4512   12.0875   -1.5706 N.4       1 <0>        -0.3796
     23 C16        10.2855   12.9803   -1.5871 C.3       1 <0>        -0.0229
     24 C17         9.3879   12.6699   -0.3900 C.3       1 <0>         0.1004
     25 C18        12.3650   12.4581   -2.6595 C.3       1 <0>         0.0265
     26 C19        12.9147   13.8636   -2.4079 C.3       1 <0>        -0.2126
     27 C20        12.5582   14.9533   -3.4209 C.3       1 <0>        -0.1681
     28 C21        13.9795   14.3889   -3.3729 C.3       1 <0>        -0.1487
     29 H1          0.5329   -2.3213   -1.9127 H         1 <0>         0.2239
     30 H2          0.5770    1.6130   -3.3459 H         1 <0>         0.0946
     31 H3         -0.2965    1.7817   -1.8042 H         1 <0>         0.0949
     32 H4          2.4266    1.2945   -1.2354 H         1 <0>         0.4054
     33 H5          3.2759    3.5171    0.0301 H         1 <0>         0.1043
     34 H6          4.1495    3.3483   -1.5115 H         1 <0>         0.1034
     35 H7          3.2848    5.5542   -2.2429 H         1 <0>         0.0808
     36 H8          2.4112    5.7230   -0.7013 H         1 <0>         0.0818
     37 H9          5.1344    5.2357   -0.1325 H         1 <0>         0.3981
     38 H10         6.4471    7.0669    0.4866 H         1 <0>         0.4076
     39 H11         4.0798    9.6243    0.0142 H         1 <0>         0.1442
     40 H12         4.5854   12.0257   -0.1515 H         1 <0>         0.1321
     41 H13         6.9166   12.7860   -0.3495 H         1 <0>         0.1232
     42 H14         8.2542    8.7270   -0.2045 H         1 <0>         0.1246
     43 H15        10.7640   10.2683    0.3505 H         1 <0>         0.0872
     44 H16         9.7507    9.2764   -0.7314 H         1 <0>         0.1251
     45 H17        11.8925   10.0487   -1.8154 H         1 <0>         0.1402
     46 H18        10.4340   10.6123   -2.6663 H         1 <0>         0.1325
     47 H19        10.6203   14.0162   -1.5330 H         1 <0>         0.1419
     48 H20         9.7237   12.8275   -2.5086 H         1 <0>         0.1318
     49 H21         8.4730   13.2585   -0.4574 H         1 <0>         0.1283
     50 H22         9.9157   12.9121    0.5324 H         1 <0>         0.0867
     51 H23        13.1901   11.7469   -2.6992 H         1 <0>         0.1333
     52 H24        11.8263   12.4428   -3.6069 H         1 <0>         0.1286
     53 H25        12.9960   14.1562   -1.3611 H         1 <0>         0.1250
     54 H26        11.9320   14.6690   -4.2666 H         1 <0>         0.1059
     55 H27        12.4047   15.9632   -3.0406 H         1 <0>         0.1106
     56 H28        14.7609   15.0274   -2.9611 H         1 <0>         0.1125
     57 H29        14.2883   13.7332   -4.1870 H         1 <0>         0.1075
     58 H30        11.9303   12.1783   -0.6872 H         1 <0>         0.4224
@<TRIPOS>BOND
     1    1    2 3
     2    1   29 1
     3    2    3 1
     4    3    4 1
     5    3   30 1
     6    3   31 1
     7    4    5 am
     8    4   32 1
     9    5    6 2
    10    5    7 1
    11    7    8 1
    12    7   33 1
    13    7   34 1
    14    8    9 1
    15    8   35 1
    16    8   36 1
    17    9   10 am
    18    9   37 1
    19   10   11 2
    20   10   12 am
    21   12   13 1
    22   12   38 1
    23   13   18 ar
    24   13   14 ar
    25   14   15 ar
    26   14   39 1
    27   15   16 ar
    28   15   40 1
    29   16   17 ar
    30   16   41 1
    31   17   18 ar
    32   17   19 1
    33   18   42 1
    34   19   24 1
    35   19   20 1
    36   20   21 1
    37   20   43 1
    38   20   44 1
    39   21   22 1
    40   21   45 1
    41   21   46 1
    42   22   23 1
    43   22   25 1
    44   22   58 1
    45   23   24 1
    46   23   47 1
    47   23   48 1
    48   24   49 1
    49   24   50 1
    50   25   26 1
    51   25   51 1
    52   25   52 1
    53   26   28 1
    54   26   27 1
    55   26   53 1
    56   27   28 1
    57   27   54 1
    58   27   55 1
    59   28   56 1
    60   28   57 1
@<TRIPOS>MOLECULE
ZINC63305084
   57    58     0     0     0
SMALL
USER_CHARGES

@<TRIPOS>ATOM
      1 C1         -1.9081    1.7436    0.7321 C.3       1 <0>        -0.1542
      2 C2         -2.2421    0.2547    0.8447 C.3       1 <0>         0.0537
      3 O1         -1.3356   -0.4992    0.0374 O.3       1 <0>        -0.3140
      4 C3         -1.4962   -1.8493    0.0253 C.ar      1 <0>         0.1260
      5 C4         -2.5095   -2.4337    0.7710 C.ar      1 <0>        -0.1910
      6 C5         -2.6733   -3.8048    0.7591 C.ar      1 <0>        -0.0756
      7 C6         -1.8233   -4.5985    0.0006 C.ar      1 <0>         0.0954
      8 C7         -0.8093   -4.0130   -0.7456 C.ar      1 <0>        -0.0975
      9 C8         -0.6503   -2.6413   -0.7373 C.ar      1 <0>        -0.1330
     10 N1         -1.9886   -5.9898   -0.0116 N.am      1 <0>        -0.6609
     11 C9         -3.2220   -6.5229    0.0935 C.2       1 <0>         0.5080
     12 O2         -4.1962   -5.8003    0.1023 O.2       1 <0>        -0.5206
     13 C10        -3.3907   -8.0166    0.2002 C.3       1 <0>         0.1202
     14 N2         -4.8156   -8.3410    0.3027 N.am      1 <0>        -0.7303
     15 C11        -5.2083   -9.6259    0.4086 C.2       1 <0>         0.7080
     16 O3         -4.3799  -10.5159    0.4190 O.2       1 <0>        -0.5830
     17 N3         -6.5192   -9.9244    0.5029 N.am      1 <0>        -0.7480
     18 C12        -6.9460  -11.3211    0.6180 C.3       1 <0>         0.1781
     19 C13        -8.4492  -11.3813    0.7078 C.ar      1 <0>        -0.0925
     20 C14        -9.0626  -11.5342    1.9373 C.ar      1 <0>        -0.0892
     21 C15       -10.4412  -11.5894    2.0197 C.ar      1 <0>        -0.0840
     22 C16       -11.2068  -11.4912    0.8726 C.ar      1 <0>        -0.1024
     23 C17       -10.5935  -11.3374   -0.3565 C.ar      1 <0>        -0.0907
     24 C18        -9.2146  -11.2779   -0.4384 C.ar      1 <0>        -0.1426
     25 C19        -8.5461  -11.1049   -1.7779 C.3       1 <0>         0.0375
     26 N4         -8.0683  -12.4082   -2.2586 N.4       1 <0>        -0.3878
     27 C20        -9.2170  -13.2891   -2.5084 C.3       1 <0>        -0.0510
     28 C21        -7.3128  -12.2234   -3.5048 C.3       1 <0>        -0.0488
     29 H1         -2.5996    2.3187    1.3479 H         1 <0>         0.0805
     30 H2         -0.8878    1.9141    1.0756 H         1 <0>         0.0681
     31 H3         -1.9990    2.0587   -0.3074 H         1 <0>         0.0676
     32 H4         -2.1513   -0.0604    1.8842 H         1 <0>         0.0632
     33 H5         -3.2625    0.0843    0.5013 H         1 <0>         0.0627
     34 H6         -3.1703   -1.8162    1.3613 H         1 <0>         0.1328
     35 H7         -3.4620   -4.2596    1.3400 H         1 <0>         0.1355
     36 H8         -0.1477   -4.6299   -1.3355 H         1 <0>         0.1350
     37 H9          0.1356   -2.1854   -1.3211 H         1 <0>         0.1385
     38 H10        -1.2153   -6.5693   -0.0956 H         1 <0>         0.4153
     39 H11        -2.9723   -8.4937   -0.6860 H         1 <0>         0.1043
     40 H12        -2.8709   -8.3785    1.0873 H         1 <0>         0.1071
     41 H13        -5.4765   -7.6310    0.2943 H         1 <0>         0.4109
     42 H14        -7.1801   -9.2144    0.4945 H         1 <0>         0.4037
     43 H15        -6.6119  -11.8765   -0.2583 H         1 <0>         0.0552
     44 H16        -6.5106  -11.7614    1.5150 H         1 <0>         0.0931
     45 H17        -8.4646  -11.6109    2.8334 H         1 <0>         0.1395
     46 H18       -10.9204  -11.7095    2.9800 H         1 <0>         0.1398
     47 H19       -12.2839  -11.5350    0.9368 H         1 <0>         0.1393
     48 H20       -11.1915  -11.2610   -1.2526 H         1 <0>         0.1354
     49 H21        -9.2615  -10.6947   -2.4907 H         1 <0>         0.1393
     50 H22        -7.7018  -10.4230   -1.6772 H         1 <0>         0.1344
     51 H23        -8.8625  -14.2561   -2.8652 H         1 <0>         0.1255
     52 H24        -9.7776  -13.4262   -1.5838 H         1 <0>         0.1228
     53 H25        -9.8633  -12.8386   -3.2618 H         1 <0>         0.1234
     54 H26        -6.4604  -11.5698   -3.3194 H         1 <0>         0.1227
     55 H27        -6.9582  -13.1905   -3.8615 H         1 <0>         0.1272
     56 H28        -7.9590  -11.7730   -4.2581 H         1 <0>         0.1243
     57 H29        -7.4701  -12.8252   -1.5613 H         1 <0>         0.4233
@<TRIPOS>BOND
     1    1    2 1
     2    1   29 1
     3    1   30 1
     4    1   31 1
     5    2    3 1
     6    2   32 1
     7    2   33 1
     8    3    4 1
     9    4    9 ar
    10    4    5 ar
    11    5    6 ar
    12    5   34 1
    13    6    7 ar
    14    6   35 1
    15    7    8 ar
    16    7   10 1
    17    8    9 ar
    18    8   36 1
    19    9   37 1
    20   10   11 am
    21   10   38 1
    22   11   12 2
    23   11   13 1
    24   13   14 1
    25   13   39 1
    26   13   40 1
    27   14   15 am
    28   14   41 1
    29   15   16 2
    30   15   17 am
    31   17   18 1
    32   17   42 1
    33   18   19 1
    34   18   43 1
    35   18   44 1
    36   19   24 ar
    37   19   20 ar
    38   20   21 ar
    39   20   45 1
    40   21   22 ar
    41   21   46 1
    42   22   23 ar
    43   22   47 1
    44   23   24 ar
    45   23   48 1
    46   24   25 1
    47   25   26 1
    48   25   49 1
    49   25   50 1
    50   26   27 1
    51   26   28 1
    52   26   57 1
    53   27   51 1
    54   27   52 1
    55   27   53 1
    56   28   54 1
    57   28   55 1
    58   28   56 1
@<TRIPOS>MOLECULE
ZINC67381512
   59    59     0     0     0
SMALL
USER_CHARGES

@<TRIPOS>ATOM
      1 C1          2.0268   -4.0467    0.8636 C.3       1 <0>        -0.1631
      2 C2          1.9872   -5.1487    1.9242 C.3       1 <0>         0.2028
      3 H1          1.0234   -5.6564    1.8848 H         1 <0>         0.1046
      4 C3          3.0892   -6.1417    1.6581 C.ar      1 <0>        -0.1186
      5 C4          4.3833   -5.8610    2.0554 C.ar      1 <0>        -0.0601
      6 C5          5.3940   -6.7717    1.8114 C.ar      1 <0>        -0.1322
      7 C6          5.1107   -7.9636    1.1705 C.ar      1 <0>        -0.0123
      8 C7          3.8168   -8.2445    0.7742 C.ar      1 <0>        -0.6695
      9 C8          2.8050   -7.3354    1.0221 C.ar      1 <0>        -0.0084
     10 S1          3.4558   -9.7632   -0.0431 S.o2      1 <0>         2.6939
     11 O1          2.2709   -9.5471   -0.7970 O.2       1 <0>        -0.9495
     12 O2          4.6688  -10.2018   -0.6394 O.2       1 <0>        -0.9516
     13 N1          3.0763  -10.8712    1.1277 N.pl3     1 <0>        -1.1190
     14 C9          1.8784  -10.6862    1.9505 C.3       1 <0>         0.0822
     15 N2          2.1734   -4.5564    3.2511 N.am      1 <0>        -0.7340
     16 C10         1.1162   -4.0542    3.9193 C.2       1 <0>         0.7106
     17 O3          0.0079   -4.0926    3.4208 O.2       1 <0>        -0.5755
     18 N3          1.2875   -3.5093    5.1400 N.am      1 <0>        -0.7482
     19 C11         0.1383   -2.9633    5.8663 C.3       1 <0>         0.1031
     20 C12         0.6033   -2.4102    7.2149 C.3       1 <0>        -0.0371
     21 N4         -0.5618   -1.9561    7.9859 N.4       1 <0>        -0.3776
     22 C13        -0.1910   -1.8234    9.4011 C.3       1 <0>         0.0209
     23 C14        -1.3515   -1.1954   10.1756 C.3       1 <0>        -0.1834
     24 C15         0.1190   -3.2058    9.9789 C.3       1 <0>        -0.1839
     25 C16        -1.0112   -0.6548    7.4733 C.3       1 <0>         0.0124
     26 C17         0.1887    0.2863    7.3488 C.3       1 <0>        -0.1825
     27 C18        -1.6563   -0.8433    6.0988 C.3       1 <0>        -0.1877
     28 H2          2.9906   -3.5390    0.9029 H         1 <0>         0.0607
     29 H3          1.8882   -4.4873   -0.1237 H         1 <0>         0.0760
     30 H4          1.2298   -3.3285    1.0560 H         1 <0>         0.0686
     31 H5          4.6046   -4.9300    2.5560 H         1 <0>         0.1275
     32 H6          6.4051   -6.5521    2.1211 H         1 <0>         0.1382
     33 H7          5.9005   -8.6749    0.9792 H         1 <0>         0.1453
     34 H8          1.7933   -7.5566    0.7158 H         1 <0>         0.1447
     35 H9          3.6472  -11.6426    1.2688 H         1 <0>         0.4222
     36 H10         1.7945  -11.5092    2.6603 H         1 <0>         0.0861
     37 H11         1.9525   -9.7441    2.4936 H         1 <0>         0.0567
     38 H12         0.9968  -10.6678    1.3097 H         1 <0>         0.0714
     39 H13         3.0576   -4.5258    3.6488 H         1 <0>         0.3973
     40 H14         2.1717   -3.4786    5.5377 H         1 <0>         0.4014
     41 H15        -0.3139   -2.1623    5.2815 H         1 <0>         0.1049
     42 H16        -0.5957   -3.7521    6.0307 H         1 <0>         0.0850
     43 H17         1.1230   -3.1921    7.7686 H         1 <0>         0.1371
     44 H18         1.2792   -1.5712    7.0499 H         1 <0>         0.1422
     45 H19         0.6900   -1.1874    9.4878 H         1 <0>         0.1379
     46 H20        -2.2656   -1.7551    9.9774 H         1 <0>         0.0818
     47 H21        -1.1329   -1.2229   11.2431 H         1 <0>         0.1070
     48 H22        -1.4827   -0.1610    9.8581 H         1 <0>         0.0843
     49 H23        -0.7620   -3.8417    9.8922 H         1 <0>         0.0827
     50 H24         0.9457   -3.6531    9.4271 H         1 <0>         0.0798
     51 H25         0.3941   -3.1073   11.0290 H         1 <0>         0.1079
     52 H26        -1.7399   -0.2255    8.1609 H         1 <0>         0.1461
     53 H27        -0.1569    1.3199    7.3657 H         1 <0>         0.1056
     54 H28         0.8708    0.1175    8.1821 H         1 <0>         0.0785
     55 H29         0.7071    0.0918    6.4098 H         1 <0>         0.0859
     56 H30        -2.0387   -1.8604    6.0133 H         1 <0>         0.0825
     57 H31        -2.4772   -0.1356    5.9826 H         1 <0>         0.1037
     58 H32        -0.9127   -0.6681    5.3213 H         1 <0>         0.0926
     59 H33        -1.3081   -2.6291    7.8954 H         1 <0>         0.4225
@<TRIPOS>BOND
     1    1    2 1
     2    1   28 1
     3    1   29 1
     4    1   30 1
     5    2    3 1
     6    2    4 1
     7    2   15 1
     8    4    9 ar
     9    4    5 ar
    10    5    6 ar
    11    5   31 1
    12    6    7 ar
    13    6   32 1
    14    7    8 ar
    15    7   33 1
    16    8    9 ar
    17    8   10 1
    18    9   34 1
    19   10   11 2
    20   10   12 2
    21   10   13 1
    22   13   14 1
    23   13   35 1
    24   14   36 1
    25   14   37 1
    26   14   38 1
    27   15   16 am
    28   15   39 1
    29   16   17 2
    30   16   18 am
    31   18   19 1
    32   18   40 1
    33   19   20 1
    34   19   41 1
    35   19   42 1
    36   20   21 1
    37   20   43 1
    38   20   44 1
    39   21   22 1
    40   21   25 1
    41   21   59 1
    42   22   23 1
    43   22   24 1
    44   22   45 1
    45   23   46 1
    46   23   47 1
    47   23   48 1
    48   24   49 1
    49   24   50 1
    50   24   51 1
    51   25   26 1
    52   25   27 1
    53   25   52 1
    54   26   53 1
    55   26   54 1
    56   26   55 1
    57   27   56 1
    58   27   57 1
    59   27   58 1
@<TRIPOS>MOLECULE
ZINC18143359
   59    61     0     0     0
SMALL
USER_CHARGES
1-[(2,4-dimethoxyphenyl)carbamothioyl]-4-(1-piperidyl)piperidine-4-carboxamide
@<TRIPOS>ATOM
      1 C1         -1.8051    8.0113    4.3294 C.3       1 <0>         0.0255
      2 O1         -2.5386    8.0331    3.1032 O.3       1 <0>        -0.3119
      3 C2         -2.2280    7.0834    2.1811 C.ar      1 <0>         0.1493
      4 C3         -1.2373    6.1513    2.4531 C.ar      1 <0>        -0.2028
      5 C4         -0.9189    5.1851    1.5179 C.ar      1 <0>        -0.0964
      6 C5         -1.5894    5.1459    0.3044 C.ar      1 <0>         0.1103
      7 C6         -2.5803    6.0847    0.0273 C.ar      1 <0>         0.1367
      8 C7         -2.9014    7.0480    0.9693 C.ar      1 <0>        -0.2041
      9 O2         -3.2350    6.0522   -1.1641 O.3       1 <0>        -0.3161
     10 C8         -4.2393    7.0457   -1.3797 C.3       1 <0>         0.0262
     11 N1         -1.2657    4.1652   -0.6454 N.pl3     1 <0>        -0.6841
     12 C9         -0.3389    3.2295   -0.3590 C.2       1 <0>         0.5715
     13 S1         -0.8165    1.6102   -0.0753 S.2       1 <0>        -0.5274
     14 N2          0.9645    3.5676   -0.3014 N.pl3     1 <0>        -0.5550
     15 C10         1.4027    4.9235   -0.6596 C.3       1 <0>         0.0865
     16 C11         2.4992    4.8284   -1.7190 C.3       1 <0>        -0.1363
     17 C12         3.6200    3.9192   -1.2097 C.3       1 <0>         0.0372
     18 C13         3.0656    2.5151   -0.9585 C.3       1 <0>        -0.1514
     19 C14         1.9749    2.5855    0.1149 C.3       1 <0>         0.0892
     20 C15         4.1741    4.4776    0.0757 C.2       1 <0>         0.5141
     21 O3          3.9233    5.6194    0.3987 O.2       1 <0>        -0.4806
     22 N3          4.9484    3.7083    0.8662 N.am      1 <0>        -0.8400
     23 C16         5.7348    2.9036   -1.8069 C.3       1 <0>        -0.0274
     24 C17         6.7541    2.7489   -2.9378 C.3       1 <0>        -0.1419
     25 C18         7.3710    4.1145   -3.2527 C.3       1 <0>        -0.1405
     26 C19         6.2563    5.0951   -3.6275 C.3       1 <0>        -0.1438
     27 C20         5.2514    5.1817   -2.4766 C.3       1 <0>        -0.0117
     28 H1         -2.1509    8.8193    4.9741 H         1 <0>         0.1059
     29 H2         -1.9613    7.0554    4.8293 H         1 <0>         0.0590
     30 H3         -0.7434    8.1426    4.1200 H         1 <0>         0.0569
     31 H4         -0.7138    6.1809    3.3973 H         1 <0>         0.1361
     32 H5         -0.1473    4.4604    1.7318 H         1 <0>         0.1244
     33 H6         -3.6723    7.7744    0.7582 H         1 <0>         0.1471
     34 H7         -5.0129    6.9517   -0.6176 H         1 <0>         0.0629
     35 H8         -3.7889    8.0365   -1.3199 H         1 <0>         0.0605
     36 H9         -4.6820    6.9068   -2.3660 H         1 <0>         0.1068
     37 H10        -1.7091    4.1605   -1.5082 H         1 <0>         0.4342
     38 H11         0.5591    5.4867   -1.0585 H         1 <0>         0.1168
     39 H12         1.7951    5.4262    0.2244 H         1 <0>         0.1083
     40 H13         2.8998    5.8220   -1.9199 H         1 <0>         0.1173
     41 H14         2.0811    4.4120   -2.6354 H         1 <0>         0.1056
     42 H15         3.8694    1.8621   -0.6181 H         1 <0>         0.1115
     43 H16         2.6422    2.1205   -1.8821 H         1 <0>         0.1154
     44 H17         2.4149    2.8937    1.0633 H         1 <0>         0.0906
     45 H18         1.5082    1.6072    0.2293 H         1 <0>         0.1545
     46 H19         5.2070    2.8198    0.5751 H         1 <0>         0.4053
     47 H20         5.2472    4.0430    1.7262 H         1 <0>         0.4250
     48 H21         6.2363    3.2783   -0.9146 H         1 <0>         0.1319
     49 H22         5.2833    1.9355   -1.5900 H         1 <0>         0.1361
     50 H23         6.2558    2.3611   -3.8263 H         1 <0>         0.0920
     51 H24         7.5384    2.0578   -2.6289 H         1 <0>         0.1168
     52 H25         8.0659    4.0167   -4.0868 H         1 <0>         0.0985
     53 H26         7.9025    4.4849   -2.3761 H         1 <0>         0.0819
     54 H27         5.7502    4.7442   -4.5269 H         1 <0>         0.0908
     55 H28         6.6850    6.0803   -3.8114 H         1 <0>         0.1157
     56 H29         4.4489    5.8683   -2.7461 H         1 <0>         0.1343
     57 H30         5.7553    5.5458   -1.5812 H         1 <0>         0.1296
     58 N4          4.6763    3.8404   -2.2397 N.4       1 <0>        -0.3805
     59 H31         4.2639    3.4957   -3.1145 H         1 <0>         0.4337
@<TRIPOS>BOND
     1    1    2 1
     2    1   28 1
     3    1   29 1
     4    1   30 1
     5    2    3 1
     6    3    8 ar
     7    3    4 ar
     8    4    5 ar
     9    4   31 1
    10    5    6 ar
    11    5   32 1
    12    6    7 ar
    13    6   11 1
    14    7    8 ar
    15    7    9 1
    16    8   33 1
    17    9   10 1
    18   10   34 1
    19   10   35 1
    20   10   36 1
    21   11   12 1
    22   11   37 1
    23   12   13 2
    24   12   14 1
    25   14   19 1
    26   14   15 1
    27   15   16 1
    28   15   38 1
    29   15   39 1
    30   16   17 1
    31   16   40 1
    32   16   41 1
    33   17   18 1
    34   17   20 1
    35   17   58 1
    36   18   19 1
    37   18   42 1
    38   18   43 1
    39   19   44 1
    40   19   45 1
    41   20   21 2
    42   20   22 am
    43   22   46 1
    44   22   47 1
    45   23   24 1
    46   23   48 1
    47   23   49 1
    48   23   58 1
    49   24   25 1
    50   24   50 1
    51   24   51 1
    52   25   26 1
    53   25   52 1
    54   25   53 1
    55   26   27 1
    56   26   54 1
    57   26   55 1
    58   27   56 1
    59   27   57 1
    60   27   58 1
    61   58   59 1
@<TRIPOS>MOLECULE
ZINC40784065
   51    54     0     0     0
SMALL
USER_CHARGES

@<TRIPOS>ATOM
      1 C1          2.3533    1.4212    2.3961 C.ar      1 <0>         0.0373
      2 C2          2.3612    2.0795    1.1732 C.ar      1 <0>        -0.1731
      3 C3          2.4020    1.3409    0.0080 C.ar      1 <0>         0.1462
      4 N1          2.4335    0.0221    0.0434 N.ar      1 <0>        -0.5092
      5 C4          2.4269   -0.6420    1.1887 C.ar      1 <0>         0.4445
      6 C5          2.3870    0.0386    2.4016 C.ar      1 <0>        -0.2016
      7 N2          2.4605   -2.0316    1.1794 N.pl3     1 <0>        -0.5796
      8 C6          2.5857   -2.7852    2.4350 C.3       1 <0>         0.0923
      9 C7          1.4196   -3.7769    2.5298 C.3       1 <0>         0.1328
     10 N3          1.3301   -4.5188    1.2643 N.pl3     1 <0>        -0.6472
     11 C8          1.2048   -3.7653    0.0088 C.3       1 <0>         0.1341
     12 C9          2.3653   -2.7737   -0.0855 C.3       1 <0>         0.0812
     13 C10         1.3637   -5.9081    1.2551 C.ar      1 <0>         0.3451
     14 C11         0.1785   -6.6459    1.2497 C.ar      1 <0>         0.0686
     15 C12         0.2691   -8.0386    1.2399 C.ar      1 <0>         0.3947
     16 N4          1.4729   -8.6064    1.2362 N.ar      1 <0>        -0.5399
     17 C13         2.5675   -7.8730    1.2415 C.ar      1 <0>         0.3005
     18 N5          2.5262   -6.5559    1.2456 N.ar      1 <0>        -0.5346
     19 N6         -0.8799   -8.8205    1.2347 N.pl3     1 <0>        -0.7112
     20 C14        -0.7717  -10.2815    1.2245 C.3       1 <0>         0.1768
     21 C15        -2.1516  -10.8874    1.2205 C.ar      1 <0>        -0.1134
     22 C16        -2.7862  -11.1683    2.4161 C.ar      1 <0>        -0.0864
     23 C17        -4.0517  -11.7240    2.4131 C.ar      1 <0>        -0.1118
     24 C18        -4.6833  -11.9991    1.2133 C.ar      1 <0>        -0.0248
     25 C19        -4.0476  -11.7177    0.0171 C.ar      1 <0>        -0.1119
     26 C20        -2.7844  -11.1568    0.0214 C.ar      1 <0>        -0.0865
     27 Cl1        -6.2726  -12.6976    1.2087 Cl        1 <0>        -0.0601
     28 N7         -1.0710   -6.0041    1.2544 N.pl3     1 <0>        -0.8640
     29 H1          2.3261    1.9765    3.3220 H         1 <0>         0.1735
     30 H2          2.3352    3.1585    1.1345 H         1 <0>         0.1796
     31 H3          2.4078    1.8489   -0.9451 H         1 <0>         0.2050
     32 H4          2.3820   -0.5053    3.3346 H         1 <0>         0.1782
     33 H5          3.5302   -3.3293    2.4424 H         1 <0>         0.1031
     34 H6          2.5504   -2.0972    3.2796 H         1 <0>         0.1060
     35 H7          1.5968   -4.4725    3.3500 H         1 <0>         0.0982
     36 H8          0.4905   -3.2336    2.7018 H         1 <0>         0.0681
     37 H9          1.2401   -4.4533   -0.8359 H         1 <0>         0.0974
     38 H10         0.2604   -3.2211    0.0014 H         1 <0>         0.0662
     39 H11         2.1845   -2.0781   -0.9050 H         1 <0>         0.0815
     40 H12         3.2937   -3.3170   -0.2617 H         1 <0>         0.1063
     41 H13         3.5282   -8.3665    1.2386 H         1 <0>         0.1961
     42 H14        -1.7535   -8.3989    1.2378 H         1 <0>         0.4056
     43 H15        -0.2326  -10.5996    0.3321 H         1 <0>         0.0795
     44 H16        -0.2323  -10.6121    2.1121 H         1 <0>         0.0798
     45 H17        -2.2929  -10.9538    3.3526 H         1 <0>         0.1341
     46 H18        -4.5473  -11.9438    3.3472 H         1 <0>         0.1377
     47 H19        -4.5400  -11.9326   -0.9198 H         1 <0>         0.1375
     48 H20        -2.2900  -10.9327   -0.9123 H         1 <0>         0.1338
     49 H21        -1.1200   -5.0376    1.1876 H         1 <0>         0.4006
     50 H22        -1.8847   -6.5273    1.3245 H         1 <0>         0.3959
     51 H23         2.4619   -0.4730   -0.7903 H         1 <0>         0.4373
@<TRIPOS>BOND
     1    1    6 ar
     2    1    2 ar
     3    1   29 1
     4    2    3 ar
     5    2   30 1
     6    3    4 ar
     7    3   31 1
     8    4    5 ar
     9    4   51 1
    10    5    6 ar
    11    5    7 1
    12    6   32 1
    13    7   12 1
    14    7    8 1
    15    8    9 1
    16    8   33 1
    17    8   34 1
    18    9   10 1
    19    9   35 1
    20    9   36 1
    21   10   11 1
    22   10   13 1
    23   11   12 1
    24   11   37 1
    25   11   38 1
    26   12   39 1
    27   12   40 1
    28   13   18 ar
    29   13   14 ar
    30   14   15 ar
    31   14   28 1
    32   15   16 ar
    33   15   19 1
    34   16   17 ar
    35   17   18 ar
    36   17   41 1
    37   19   20 1
    38   19   42 1
    39   20   21 1
    40   20   43 1
    41   20   44 1
    42   21   26 ar
    43   21   22 ar
    44   22   23 ar
    45   22   45 1
    46   23   24 ar
    47   23   46 1
    48   24   25 ar
    49   24   27 1
    50   25   26 ar
    51   25   47 1
    52   26   48 1
    53   28   49 1
    54   28   50 1
@<TRIPOS>MOLECULE
ZINC51616701
   60    61     0     0     0
SMALL
USER_CHARGES

@<TRIPOS>ATOM
      1 C1          2.0462   -7.2466    9.7039 C.3       1 <0>        -0.1496
      2 C2          2.3355   -7.0059    8.2210 C.3       1 <0>        -0.6295
      3 S1          0.7710   -6.8996    7.3091 S.o2      1 <0>         2.6106
      4 O1          0.1226   -8.1640    7.3006 O.2       1 <0>        -0.9524
      5 O2          0.0642   -5.7255    7.6850 O.2       1 <0>        -0.9524
      6 N1          1.2130   -6.6407    5.7343 N.pl3     1 <0>        -1.1220
      7 C3          1.9522   -7.6720    5.0020 C.3       1 <0>         0.1164
      8 C4          1.9108   -7.3625    3.5042 C.3       1 <0>        -0.1411
      9 C5          2.6829   -8.4395    2.7394 C.3       1 <0>         0.1354
     10 N2          2.6432   -8.1433    1.3052 N.am      1 <0>        -0.7351
     11 C6          3.2609   -8.9619    0.4307 C.2       1 <0>         0.7063
     12 O3          3.8510   -9.9463    0.8320 O.2       1 <0>        -0.5694
     13 N3          3.2244   -8.6893   -0.8887 N.am      1 <0>        -0.6898
     14 C7          3.9454   -9.4836   -1.7875 C.ar      1 <0>         0.2066
     15 C8          4.5323   -8.9094   -2.9075 C.ar      1 <0>        -0.1466
     16 C9          5.2436   -9.6959   -3.7923 C.ar      1 <0>        -0.0696
     17 C10         5.3717  -11.0537   -3.5640 C.ar      1 <0>        -0.1835
     18 C11         4.7881  -11.6285   -2.4499 C.ar      1 <0>        -0.0744
     19 C12         4.0803  -10.8465   -1.5582 C.ar      1 <0>        -0.1192
     20 C13         6.1486  -11.9088   -4.5316 C.3       1 <0>         0.0475
     21 N4          7.5583  -11.9556   -4.1210 N.4       1 <0>        -0.3814
     22 C14         7.6658  -12.6294   -2.8214 C.3       1 <0>        -0.0125
     23 C15         9.1217  -12.6091   -2.3510 C.3       1 <0>        -0.1415
     24 C16         9.9945  -13.3359   -3.3783 C.3       1 <0>        -0.1042
     25 C17         9.8172  -12.6705   -4.7461 C.3       1 <0>        -0.1430
     26 C18         8.3355  -12.6884   -5.1277 C.3       1 <0>        -0.0066
     27 C19        11.4621  -13.2509   -2.9543 C.3       1 <0>        -0.1538
     28 H1          1.4941   -8.1793    9.8197 H         1 <0>         0.0740
     29 H2          2.9863   -7.3105   10.2518 H         1 <0>         0.0839
     30 H3          1.4520   -6.4216   10.0968 H         1 <0>         0.0743
     31 H4          2.8876   -6.0732    8.1052 H         1 <0>         0.1328
     32 H5          2.9297   -7.8310    7.8281 H         1 <0>         0.1297
     33 H6          0.9824   -5.8063    5.2967 H         1 <0>         0.4195
     34 H7          2.9879   -7.6867    5.3415 H         1 <0>         0.0700
     35 H8          1.4961   -8.6449    5.1848 H         1 <0>         0.0873
     36 H9          0.8751   -7.3478    3.1647 H         1 <0>         0.0838
     37 H10         2.3670   -6.3896    3.3214 H         1 <0>         0.0811
     38 H11         3.7186   -8.4543    3.0789 H         1 <0>         0.0760
     39 H12         2.2267   -9.4125    2.9222 H         1 <0>         0.0780
     40 H13         2.1724   -7.3579    0.9850 H         1 <0>         0.4026
     41 H14         2.6983   -7.9427   -1.2154 H         1 <0>         0.4144
     42 H15         4.4323   -7.8491   -3.0865 H         1 <0>         0.1378
     43 H16         5.7000   -9.2500   -4.6637 H         1 <0>         0.1348
     44 H17         4.8897  -12.6893   -2.2745 H         1 <0>         0.1336
     45 H18         3.6288  -11.2952   -0.6858 H         1 <0>         0.1533
     46 H19         5.7376  -12.9184   -4.5352 H         1 <0>         0.1339
     47 H20         6.0756  -11.4832   -5.5323 H         1 <0>         0.1356
     48 H21         7.0416  -12.1129   -2.0922 H         1 <0>         0.1320
     49 H22         7.3303  -13.6618   -2.9190 H         1 <0>         0.1273
     50 H23         9.4582  -11.5770   -2.2528 H         1 <0>         0.0866
     51 H24         9.1997  -13.1114   -1.3868 H         1 <0>         0.1108
     52 H25         9.6916  -14.3812   -3.4395 H         1 <0>         0.0882
     53 H26        10.1681  -11.6396   -4.6976 H         1 <0>         0.0874
     54 H27        10.3923  -13.2166   -5.4938 H         1 <0>         0.1117
     55 H28         7.9857  -13.7196   -5.1762 H         1 <0>         0.1283
     56 H29         8.2057  -12.2155   -6.1012 H         1 <0>         0.1300
     57 H30        11.5858  -13.7186   -1.9775 H         1 <0>         0.0670
     58 H31        12.0823  -13.7685   -3.6861 H         1 <0>         0.0669
     59 H32        11.7638  -12.2050   -2.8972 H         1 <0>         0.0614
     60 H33         7.9155  -11.0154   -4.0407 H         1 <0>         0.4209
@<TRIPOS>BOND
     1    1    2 1
     2    1   28 1
     3    1   29 1
     4    1   30 1
     5    2    3 1
     6    2   31 1
     7    2   32 1
     8    3    4 2
     9    3    5 2
    10    3    6 1
    11    6    7 1
    12    6   33 1
    13    7    8 1
    14    7   34 1
    15    7   35 1
    16    8    9 1
    17    8   36 1
    18    8   37 1
    19    9   10 1
    20    9   38 1
    21    9   39 1
    22   10   11 am
    23   10   40 1
    24   11   12 2
    25   11   13 am
    26   13   14 1
    27   13   41 1
    28   14   19 ar
    29   14   15 ar
    30   15   16 ar
    31   15   42 1
    32   16   17 ar
    33   16   43 1
    34   17   18 ar
    35   17   20 1
    36   18   19 ar
    37   18   44 1
    38   19   45 1
    39   20   21 1
    40   20   46 1
    41   20   47 1
    42   21   26 1
    43   21   22 1
    44   21   60 1
    45   22   23 1
    46   22   48 1
    47   22   49 1
    48   23   24 1
    49   23   50 1
    50   23   51 1
    51   24   25 1
    52   24   27 1
    53   24   52 1
    54   25   26 1
    55   25   53 1
    56   25   54 1
    57   26   55 1
    58   26   56 1
    59   27   57 1
    60   27   58 1
    61   27   59 1
@<TRIPOS>MOLECULE
ZINC60113027
   54    56     0     0     0
SMALL
USER_CHARGES

@<TRIPOS>ATOM
      1 C1          0.2167    1.4212    0.3847 C.ar      1 <0>        -0.1091
      2 C2          1.3803    2.1654    0.4652 C.ar      1 <0>        -0.0759
      3 C3          2.6060    1.5336    0.5741 C.ar      1 <0>        -0.1656
      4 C4          2.6750    0.1556    0.6027 C.ar      1 <0>        -0.0755
      5 C5          1.5057   -0.6001    0.5220 C.ar      1 <0>        -0.0906
      6 C6          0.2727    0.0429    0.4128 C.ar      1 <0>        -0.0303
      7 C7          1.5728   -2.0787    0.5517 C.2       1 <0>         0.4172
      8 N1          0.5730   -2.7658    1.0207 N.2       1 <0>        -0.4122
      9 O1         -0.5138   -2.1020    1.6397 O.3       1 <0>        -0.2088
     10 C8         -1.5402   -2.9792    2.1079 C.3       1 <0>         0.0583
     11 C9         -2.6404   -2.1701    2.7450 C.2       1 <0>         0.5203
     12 O2         -2.5541   -0.9612    2.7934 O.2       1 <0>        -0.5043
     13 N2         -3.7203   -2.7898    3.2611 N.am      1 <0>        -0.6684
     14 C10        -4.7900   -2.0352    3.7565 C.ar      1 <0>         0.1476
     15 C11        -5.4997   -2.4786    4.8647 C.ar      1 <0>        -0.1284
     16 C12        -6.5548   -1.7322    5.3515 C.ar      1 <0>        -0.0888
     17 C13        -6.9051   -0.5433    4.7359 C.ar      1 <0>        -0.0466
     18 C14        -6.1995   -0.0992    3.6314 C.ar      1 <0>        -0.0905
     19 C15        -5.1399   -0.8390    3.1441 C.ar      1 <0>        -0.1072
     20 Cl1        -8.2322    0.3922    5.3499 Cl        1 <0>        -0.0626
     21 N3          2.7000   -2.7302    0.0801 N.pl3     1 <0>        -0.8279
     22 C16         3.8686    2.3517    0.6612 C.3       1 <0>         0.0455
     23 N4          4.1684    2.6411    2.0698 N.4       1 <0>        -0.3820
     24 C17         4.4591    1.3867    2.7744 C.3       1 <0>        -0.0132
     25 C18         4.6925    1.6735    4.2592 C.3       1 <0>        -0.1451
     26 C19         5.8782    2.6312    4.4083 C.3       1 <0>        -0.1386
     27 C20         5.5957    3.9061    3.6084 C.3       1 <0>        -0.1464
     28 C21         5.3288    3.5366    2.1476 C.3       1 <0>        -0.0069
     29 H1         -0.7377    1.9202    0.3043 H         1 <0>         0.1424
     30 H2          1.3315    3.2440    0.4425 H         1 <0>         0.1353
     31 H3          3.6326   -0.3366    0.6870 H         1 <0>         0.1331
     32 H4         -0.6363   -0.5369    0.3500 H         1 <0>         0.1505
     33 H5         -1.9448   -3.5454    1.2690 H         1 <0>         0.0948
     34 H6         -1.1227   -3.6671    2.8430 H         1 <0>         0.0931
     35 H7         -3.7562   -3.7587    3.2892 H         1 <0>         0.4168
     36 H8         -5.2269   -3.4065    5.3453 H         1 <0>         0.1379
     37 H9         -7.1073   -2.0768    6.2131 H         1 <0>         0.1410
     38 H10        -6.4751    0.8288    3.1525 H         1 <0>         0.1385
     39 H11        -4.5868   -0.4897    2.2847 H         1 <0>         0.1405
     40 H12         3.4456   -2.2178   -0.2697 H         1 <0>         0.4113
     41 H13         2.7439   -3.6990    0.0995 H         1 <0>         0.4148
     42 H14         4.6947    1.7929    0.2213 H         1 <0>         0.1354
     43 H15         3.7333    3.2875    0.1188 H         1 <0>         0.1389
     44 H16         3.6157    0.7050    2.6647 H         1 <0>         0.1291
     45 H17         5.3523    0.9298    2.3483 H         1 <0>         0.1276
     46 H18         3.7998    2.1303    4.6864 H         1 <0>         0.0870
     47 H19         4.9100    0.7411    4.7802 H         1 <0>         0.1108
     48 H20         6.0131    2.8832    5.4601 H         1 <0>         0.0939
     49 H21         6.7816    2.1547    4.0277 H         1 <0>         0.0816
     50 H22         4.7217    4.4092    4.0220 H         1 <0>         0.0874
     51 H23         6.4587    4.5695    3.6641 H         1 <0>         0.1125
     52 H24         6.2034    3.0338    1.7349 H         1 <0>         0.1287
     53 H25         5.1275    4.4420    1.5752 H         1 <0>         0.1306
     54 H26         3.3710    3.0877    2.4975 H         1 <0>         0.4225
@<TRIPOS>BOND
     1    1    6 ar
     2    1    2 ar
     3    1   29 1
     4    2    3 ar
     5    2   30 1
     6    3    4 ar
     7    3   22 1
     8    4    5 ar
     9    4   31 1
    10    5    6 ar
    11    5    7 1
    12    6   32 1
    13    7    8 2
    14    7   21 1
    15    8    9 1
    16    9   10 1
    17   10   11 1
    18   10   33 1
    19   10   34 1
    20   11   12 2
    21   11   13 am
    22   13   14 1
    23   13   35 1
    24   14   19 ar
    25   14   15 ar
    26   15   16 ar
    27   15   36 1
    28   16   17 ar
    29   16   37 1
    30   17   18 ar
    31   17   20 1
    32   18   19 ar
    33   18   38 1
    34   19   39 1
    35   21   40 1
    36   21   41 1
    37   22   23 1
    38   22   42 1
    39   22   43 1
    40   23   28 1
    41   23   24 1
    42   23   54 1
    43   24   25 1
    44   24   44 1
    45   24   45 1
    46   25   26 1
    47   25   46 1
    48   25   47 1
    49   26   27 1
    50   26   48 1
    51   26   49 1
    52   27   28 1
    53   27   50 1
    54   27   51 1
    55   28   52 1
    56   28   53 1
@<TRIPOS>MOLECULE
ZINC67346335
   56    58     0     0     0
SMALL
USER_CHARGES

@<TRIPOS>ATOM
      1 C1         -0.0125    1.3750   -0.1803 C.ar      1 <0>        -0.0859
      2 C2          1.1742    2.0812   -0.1831 C.ar      1 <0>        -0.1173
      3 C3          2.3799    1.4109   -0.0183 C.ar      1 <0>         0.1615
      4 C4          2.3871    0.0317    0.1488 C.ar      1 <0>        -0.1360
      5 C5          1.1966   -0.6682    0.1506 C.ar      1 <0>        -0.0857
      6 C6         -0.0017    0.0022   -0.0137 C.ar      1 <0>        -0.1221
      7 C7         -1.2988   -0.7650   -0.0112 C.3       1 <0>        -0.0963
      8 C8         -1.6385   -1.1972   -1.4390 C.3       1 <0>        -0.0027
      9 N1         -2.9028   -1.9450   -1.4366 N.4       1 <0>        -0.3952
     10 C9         -4.0335   -1.0384   -1.1115 C.3       1 <0>        -0.0082
     11 C10        -5.2633   -1.7849   -1.6869 C.3       1 <0>        -0.1459
     12 C11        -4.7110   -2.4081   -2.9895 C.3       1 <0>        -0.1456
     13 C12        -3.1856   -2.4733   -2.7888 C.3       1 <0>        -0.0084
     14 N2          3.5826    2.1222   -0.0212 N.am      1 <0>        -0.6493
     15 C13         3.6267    3.3734    0.4780 C.2       1 <0>         0.5125
     16 O1          2.6473    3.8469    1.0163 O.2       1 <0>        -0.4909
     17 C14         4.8808    4.1771    0.3687 C.2       1 <0>         0.5088
     18 O2          5.8600    3.7037   -0.1696 O.2       1 <0>        -0.5111
     19 N3          4.9249    5.4283    0.8678 N.am      1 <0>        -0.6893
     20 C15         6.1550    6.2167    0.7606 C.3       1 <0>         0.0870
     21 C16         5.9385    7.5893    1.4011 C.3       1 <0>         0.1423
     22 H1          5.6784    7.4628    2.4520 H         1 <0>         0.1212
     23 C17         7.2038    8.4003    1.2908 C.ar      1 <0>        -0.1364
     24 C18         7.4595    9.1288    0.1440 C.ar      1 <0>        -0.0783
     25 C19         8.6193    9.8733    0.0420 C.ar      1 <0>        -0.1491
     26 C20         9.5254    9.8894    1.0888 C.ar      1 <0>         0.1086
     27 C21         9.2682    9.1594    2.2369 C.ar      1 <0>        -0.1498
     28 C22         8.1052    8.4198    2.3388 C.ar      1 <0>        -0.0747
     29 F1         10.6598   10.6165    0.9899 F         1 <0>        -0.1344
     30 O3          4.8774    8.2678    0.7261 O.3       1 <0>        -0.5476
     31 H2         -0.9505    1.8960   -0.3038 H         1 <0>         0.1294
     32 H3          1.1651    3.1533   -0.3136 H         1 <0>         0.1409
     33 H4          3.3226   -0.4925    0.2768 H         1 <0>         0.1358
     34 H5          1.2015   -1.7404    0.2801 H         1 <0>         0.1309
     35 H6         -1.1980   -1.6471    0.6211 H         1 <0>         0.0944
     36 H7         -2.0958   -0.1299    0.3755 H         1 <0>         0.0941
     37 H8         -1.7393   -0.3151   -2.0714 H         1 <0>         0.1304
     38 H9         -0.8414   -1.8323   -1.8257 H         1 <0>         0.1309
     39 H10        -4.1291   -0.9141   -0.0328 H         1 <0>         0.1355
     40 H11        -3.9057   -0.0730   -1.6012 H         1 <0>         0.1338
     41 H12        -5.5992   -2.5616   -1.0000 H         1 <0>         0.0979
     42 H13        -6.0709   -1.0863   -1.9058 H         1 <0>         0.1162
     43 H14        -5.1170   -3.4096   -3.1314 H         1 <0>         0.1048
     44 H15        -4.9535   -1.7760   -3.8437 H         1 <0>         0.1034
     45 H16        -2.6859   -1.8602   -3.5389 H         1 <0>         0.1302
     46 H17        -2.8451   -3.5061   -2.8627 H         1 <0>         0.1318
     47 H18         4.3857    1.7155   -0.3824 H         1 <0>         0.4275
     48 H19         4.1422    5.8067    1.2980 H         1 <0>         0.4197
     49 H20         6.9643    5.6991    1.2755 H         1 <0>         0.0910
     50 H21         6.4151    6.3432   -0.2903 H         1 <0>         0.0836
     51 H22         6.7528    9.1158   -0.6725 H         1 <0>         0.1321
     52 H23         8.8190   10.4420   -0.8542 H         1 <0>         0.1405
     53 H24         9.9744    9.1709    3.0539 H         1 <0>         0.1411
     54 H25         7.9023    7.8539    3.2360 H         1 <0>         0.1369
     55 H26         5.0408    8.4150   -0.2156 H         1 <0>         0.3789
     56 H27        -2.8591   -2.7011   -0.7699 H         1 <0>         0.4266
@<TRIPOS>BOND
     1    1    6 ar
     2    1    2 ar
     3    1   31 1
     4    2    3 ar
     5    2   32 1
     6    3    4 ar
     7    3   14 1
     8    4    5 ar
     9    4   33 1
    10    5    6 ar
    11    5   34 1
    12    6    7 1
    13    7    8 1
    14    7   35 1
    15    7   36 1
    16    8    9 1
    17    8   37 1
    18    8   38 1
    19    9   13 1
    20    9   10 1
    21    9   56 1
    22   10   11 1
    23   10   39 1
    24   10   40 1
    25   11   12 1
    26   11   41 1
    27   11   42 1
    28   12   13 1
    29   12   43 1
    30   12   44 1
    31   13   45 1
    32   13   46 1
    33   14   15 am
    34   14   47 1
    35   15   16 2
    36   15   17 1
    37   17   18 2
    38   17   19 am
    39   19   20 1
    40   19   48 1
    41   20   21 1
    42   20   49 1
    43   20   50 1
    44   21   22 1
    45   21   23 1
    46   21   30 1
    47   23   28 ar
    48   23   24 ar
    49   24   25 ar
    50   24   51 1
    51   25   26 ar
    52   25   52 1
    53   26   27 ar
    54   26   29 1
    55   27   28 ar
    56   27   53 1
    57   28   54 1
    58   30   55 1
@<TRIPOS>MOLECULE
ZINC11898429
   58    61     0     0     0
SMALL
USER_CHARGES
N'-(5-chloro-2-cyano-phenyl)-N-[(2R)-2-(3,4-dihydro-1H-isoquinolin-2-yl)-2-(1-methylpyrrol-2-yl)ethyl]oxamide
@<TRIPOS>ATOM
      1 C1          6.1880    9.5170   -2.1886 C.3       1 <0>         0.0525
      2 N1          6.0005   10.6365   -1.2624 N.pl3     1 <0>        -0.4232
      3 C2          6.6790   11.8186   -1.2972 C.2       1 <0>         0.0293
      4 C3          6.2342   12.5900   -0.2845 C.2       1 <0>        -0.1812
      5 C4          5.2404   11.8597    0.3968 C.2       1 <0>        -0.1871
      6 C5          5.1158   10.6699   -0.2255 C.2       1 <0>        -0.0561
      7 C6          4.1671    9.5651    0.1623 C.3       1 <0>         0.1089
      8 H1          3.5500    9.2983   -0.6956 H         1 <0>         0.1639
      9 C7          4.9666    8.3419    0.6155 C.3       1 <0>         0.0888
     10 N2          5.6754    8.6550    1.8589 N.am      1 <0>        -0.7156
     11 C8          6.5265    7.7573    2.3938 C.2       1 <0>         0.5211
     12 O1          6.7059    6.6896    1.8455 O.2       1 <0>        -0.4829
     13 C9          7.2491    8.0766    3.6613 C.2       1 <0>         0.5117
     14 O2          7.0697    9.1444    4.2097 O.2       1 <0>        -0.4822
     15 N3          8.1002    7.1789    4.1962 N.am      1 <0>        -0.6337
     16 C10         8.6902    7.4296    5.4321 C.ar      1 <0>         0.1957
     17 C11         8.0920    8.3076    6.3251 C.ar      1 <0>        -0.1279
     18 C12         8.6797    8.5553    7.5511 C.ar      1 <0>         0.0129
     19 C13         9.8652    7.9262    7.9006 C.ar      1 <0>        -0.1185
     20 C14        10.4757    7.0560    7.0238 C.ar      1 <0>        -0.0301
     21 C15         9.8932    6.7958    5.7808 C.ar      1 <0>        -0.0449
     22 C16        10.5196    5.8875    4.8680 C.1       1 <0>         0.2358
     23 N4         11.0165    5.1670    4.1439 N.1       1 <0>        -0.3845
     24 Cl1         7.9258    9.6548    8.6631 Cl        1 <0>        -0.0407
     25 C17         2.5382    8.9032    1.8301 C.3       1 <0>        -0.0103
     26 C18         1.9566    9.3464    3.1728 C.3       1 <0>        -0.1052
     27 C19         1.2446   10.6653    3.0145 C.ar      1 <0>        -0.0917
     28 C20         0.3609   11.0631    4.0065 C.ar      1 <0>        -0.1032
     29 C21        -0.3053   12.2677    3.9050 C.ar      1 <0>        -0.0916
     30 C22        -0.0909   13.0818    2.8082 C.ar      1 <0>        -0.1034
     31 C23         0.7866   12.6858    1.8193 C.ar      1 <0>        -0.0913
     32 C24         1.4562   11.4749    1.9192 C.ar      1 <0>        -0.1324
     33 C25         2.4003   11.0841    0.8126 C.3       1 <0>         0.0432
     34 H2          5.5951    9.6859   -3.0875 H         1 <0>         0.0892
     35 H3          7.2416    9.4405   -2.4574 H         1 <0>         0.0985
     36 H4          5.8670    8.5918   -1.7101 H         1 <0>         0.0860
     37 H5          7.4444   12.0886   -2.0097 H         1 <0>         0.1778
     38 H6          6.5769   13.5846   -0.0404 H         1 <0>         0.1512
     39 H7          4.6814   12.1917    1.2591 H         1 <0>         0.1383
     40 H8          5.6880    8.0731   -0.1561 H         1 <0>         0.1207
     41 H9          4.2875    7.5063    0.7850 H         1 <0>         0.1124
     42 H10         5.5320    9.5084    2.2971 H         1 <0>         0.4092
     43 H11         8.3018    6.3581    3.7201 H         1 <0>         0.4290
     44 H12         7.1662    8.7975    6.0617 H         1 <0>         0.1679
     45 H13        10.3145    8.1227    8.8628 H         1 <0>         0.1535
     46 H14        11.4012    6.5721    7.2989 H         1 <0>         0.1549
     47 H15         1.7288    8.6327    1.1520 H         1 <0>         0.1425
     48 H16         3.1955    8.0468    1.9804 H         1 <0>         0.1380
     49 H17         2.7628    9.4552    3.8982 H         1 <0>         0.1043
     50 H18         1.2511    8.5943    3.5259 H         1 <0>         0.1272
     51 H19         0.1935   10.4272    4.8632 H         1 <0>         0.1351
     52 H20        -0.9926   12.5734    4.6800 H         1 <0>         0.1369
     53 H21        -0.6088   14.0260    2.7257 H         1 <0>         0.1376
     54 H22         0.9529   13.3222    0.9627 H         1 <0>         0.1349
     55 H23         2.9855   11.9543    0.5150 H         1 <0>         0.1484
     56 H24         1.8246   10.7285   -0.0419 H         1 <0>         0.1415
     57 N5          3.3172   10.0314    1.2812 N.4       1 <0>        -0.3875
     58 H25         3.9184   10.4147    2.0200 H         1 <0>         0.4260
@<TRIPOS>BOND
     1    1    2 1
     2    1   34 1
     3    1   35 1
     4    1   36 1
     5    2    6 1
     6    2    3 1
     7    3    4 2
     8    3   37 1
     9    4    5 1
    10    4   38 1
    11    5    6 2
    12    5   39 1
    13    6    7 1
    14    7    8 1
    15    7    9 1
    16    7   57 1
    17    9   10 1
    18    9   40 1
    19    9   41 1
    20   10   11 am
    21   10   42 1
    22   11   12 2
    23   11   13 1
    24   13   14 2
    25   13   15 am
    26   15   16 1
    27   15   43 1
    28   16   21 ar
    29   16   17 ar
    30   17   18 ar
    31   17   44 1
    32   18   19 ar
    33   18   24 1
    34   19   20 ar
    35   19   45 1
    36   20   21 ar
    37   20   46 1
    38   21   22 1
    39   22   23 3
    40   25   26 1
    41   25   47 1
    42   25   48 1
    43   25   57 1
    44   26   27 1
    45   26   49 1
    46   26   50 1
    47   27   32 ar
    48   27   28 ar
    49   28   29 ar
    50   28   51 1
    51   29   30 ar
    52   29   52 1
    53   30   31 ar
    54   30   53 1
    55   31   32 ar
    56   31   54 1
    57   32   33 1
    58   33   55 1
    59   33   56 1
    60   33   57 1
    61   57   58 1
@<TRIPOS>MOLECULE
ZINC16194482
   42    43     0     0     0
SMALL
USER_CHARGES
N-[(3,5-dibromo-2-methoxy-phenyl)methyl]-N'-(4-nitrophenyl)ethane-1,2-diamine
@<TRIPOS>ATOM
      1 C1          4.0972   -7.6814    3.0447 C.3       1 <0>         0.0260
      2 O1          4.9096   -6.8053    2.2609 O.3       1 <0>        -0.3367
      3 C2          5.4025   -7.2994    1.0944 C.ar      1 <0>         0.1583
      4 C3          4.6766   -7.1625   -0.0797 C.ar      1 <0>        -0.1763
      5 C4          5.1818   -7.6603   -1.2652 C.ar      1 <0>        -0.0340
      6 C5          6.4086   -8.2998   -1.2815 C.ar      1 <0>        -0.0957
      7 C6          7.1320   -8.4428   -0.1112 C.ar      1 <0>        -0.0160
      8 C7          6.6299   -7.9470    1.0775 C.ar      1 <0>        -0.1108
      9 Br1         7.6183   -8.1436    2.6775 Br        1 <0>         0.0107
     10 Br2         7.0977   -8.9790   -2.9063 Br        1 <0>         0.0029
     11 C8          3.3405   -6.4657   -0.0631 C.3       1 <0>         0.0597
     12 C9          2.2630   -4.2975   -0.0417 C.3       1 <0>        -0.0162
     13 C10         2.5182   -2.7889   -0.0366 C.3       1 <0>         0.0949
     14 N1          1.2378   -2.0771   -0.0205 N.pl3     1 <0>        -0.7358
     15 C11         1.2152   -0.6806   -0.0132 C.ar      1 <0>         0.2519
     16 C12         0.0021   -0.0041    0.0020 C.ar      1 <0>        -0.1817
     17 C13        -0.0167    1.3768    0.0096 C.ar      1 <0>        -0.0039
     18 C14         1.1705    2.0860    0.0021 C.ar      1 <0>        -0.0885
     19 C15         2.3799    1.4157   -0.0132 C.ar      1 <0>        -0.0044
     20 C16         2.4058    0.0349   -0.0208 C.ar      1 <0>        -0.1946
     21 N2          1.1465    3.5659    0.0098 N.pl3     1 <0>         0.0299
     22 O2          0.0820    4.1577    0.0228 O.2       1 <0>        -0.1589
     23 O3          2.1913    4.1919    0.0032 O.3       1 <0>        -0.1614
     24 H1          3.2262   -7.9857    2.4643 H         1 <0>         0.0542
     25 H2          4.6756   -8.5629    3.3213 H         1 <0>         0.0657
     26 H3          3.7701   -7.1638    3.9466 H         1 <0>         0.1145
     27 H4          4.6188   -7.5498   -2.1802 H         1 <0>         0.1566
     28 H5          8.0894   -8.9423   -0.1261 H         1 <0>         0.1612
     29 H6          2.7895   -6.7578    0.8308 H         1 <0>         0.1413
     30 H7          2.7721   -6.7488   -0.9491 H         1 <0>         0.1475
     31 H8          1.7045   -4.5745    0.8524 H         1 <0>         0.1412
     32 H9          1.6871   -4.5656   -0.9275 H         1 <0>         0.1419
     33 H10         3.0767   -2.5119   -0.9307 H         1 <0>         0.0882
     34 H11         3.0941   -2.5209    0.8492 H         1 <0>         0.0886
     35 H12         0.4058   -2.5757   -0.0149 H         1 <0>         0.4134
     36 H13        -0.9254   -0.5574    0.0083 H         1 <0>         0.1481
     37 H14        -0.9595    1.9034    0.0169 H         1 <0>         0.1591
     38 H15         3.3052    1.9726   -0.0194 H         1 <0>         0.1571
     39 H16         3.3508   -0.4880   -0.0323 H         1 <0>         0.1412
     40 N3          3.5564   -5.0065   -0.0579 N.4       1 <0>        -0.5153
     41 H17         4.0791   -4.7385   -0.9000 H         1 <0>         0.4360
     42 H18         4.0954   -4.7469    0.7766 H         1 <0>         0.4401
@<TRIPOS>BOND
     1    1    2 1
     2    1   24 1
     3    1   25 1
     4    1   26 1
     5    2    3 1
     6    3    8 ar
     7    3    4 ar
     8    4    5 ar
     9    4   11 1
    10    5    6 ar
    11    5   27 1
    12    6    7 ar
    13    6   10 1
    14    7    8 ar
    15    7   28 1
    16    8    9 1
    17   11   29 1
    18   11   30 1
    19   11   40 1
    20   12   13 1
    21   12   31 1
    22   12   32 1
    23   12   40 1
    24   13   14 1
    25   13   33 1
    26   13   34 1
    27   14   15 1
    28   14   35 1
    29   15   20 ar
    30   15   16 ar
    31   16   17 ar
    32   16   36 1
    33   17   18 ar
    34   17   37 1
    35   18   19 ar
    36   18   21 1
    37   19   20 ar
    38   19   38 1
    39   20   39 1
    40   21   22 2
    41   21   23 1
    42   40   41 1
    43   40   42 1
@<TRIPOS>MOLECULE
ZINC34746753
   61    63     0     0     0
SMALL
USER_CHARGES

@<TRIPOS>ATOM
      1 C1         -0.0167    0.9049    0.4266 C.3       1 <0>        -0.2365
      2 C2         -0.5924   -0.5076    0.3067 C.3       1 <0>         0.1807
      3 H1         -0.4283   -1.0472    1.2395 H         1 <0>         0.1260
      4 C3         -2.0710   -0.4254    0.0273 C.2       1 <0>         0.3888
      5 N1         -2.5234   -0.9697   -1.0612 N.2       1 <0>        -0.5037
      6 C4         -3.8419   -0.9354   -1.3781 C.ar      1 <0>         0.1713
      7 C5         -4.3307   -1.5203   -2.5477 C.ar      1 <0>        -0.1019
      8 C6         -5.6795   -1.4593   -2.8255 C.ar      1 <0>         0.0127
      9 C7         -6.5570   -0.8224   -1.9556 C.ar      1 <0>        -0.1273
     10 C8         -6.1007   -0.2423   -0.8046 C.ar      1 <0>        -0.0253
     11 C9         -4.7417   -0.2908   -0.5000 C.ar      1 <0>        -0.1906
     12 C10        -4.1966    0.3150    0.7234 C.2       1 <0>         0.5549
     13 O1         -4.9172    0.8848    1.5221 O.2       1 <0>        -0.4942
     14 N2         -2.8632    0.2097    0.9301 N.am      1 <0>        -0.5443
     15 C11        -2.2676    0.7910    2.1357 C.3       1 <0>         0.0456
     16 Cl1        -6.2895   -2.1860   -4.2792 Cl        1 <0>        -0.0458
     17 N3          0.0732   -1.2147   -0.7901 N.am      1 <0>        -0.6114
     18 C12         1.2567   -2.0354   -0.5212 C.3       1 <0>         0.1235
     19 C13         0.8225   -3.4674   -0.2021 C.3       1 <0>        -0.1392
     20 C14         2.0584   -4.3244    0.0788 C.3       1 <0>        -0.1177
     21 C15         1.6242   -5.7564    0.3979 C.3       1 <0>        -0.1185
     22 C16         2.8601   -6.6134    0.6788 C.3       1 <0>        -0.1523
     23 C17         2.4259   -8.0454    0.9979 C.3       1 <0>        -0.0106
     24 N4          3.6125   -8.8683    1.2676 N.4       1 <0>        -0.6386
     25 C18        -0.4031   -1.1103   -2.0466 C.2       1 <0>         0.6033
     26 O2         -0.0873   -1.9304   -2.8864 O.2       1 <0>        -0.5187
     27 C19        -1.3098    0.0017   -2.4034 C.ar      1 <0>        -0.0148
     28 C20        -1.6444    0.9661   -1.4513 C.ar      1 <0>        -0.2198
     29 C21        -2.4903    2.0019   -1.7895 C.ar      1 <0>        -0.1028
     30 C22        -3.0079    2.0873   -3.0696 C.ar      1 <0>        -0.1443
     31 C23        -2.6810    1.1338   -4.0201 C.ar      1 <0>         0.1083
     32 C24        -1.8298    0.0945   -3.6949 C.ar      1 <0>        -0.1270
     33 F1         -3.1908    1.2228   -5.2680 F         1 <0>        -0.1327
     34 H2         -0.5797    1.4646    1.1735 H         1 <0>         0.0982
     35 H3          1.0291    0.8466    0.7283 H         1 <0>         0.0968
     36 H4         -0.0894    1.4098   -0.5367 H         1 <0>         0.1119
     37 H5         -3.6568   -2.0168   -3.2301 H         1 <0>         0.1473
     38 H6         -7.6102   -0.7852   -2.1915 H         1 <0>         0.1468
     39 H7         -6.7899    0.2503   -0.1347 H         1 <0>         0.1494
     40 H8         -2.1147    1.8598    1.9864 H         1 <0>         0.0886
     41 H9         -2.9357    0.6344    2.9827 H         1 <0>         0.0988
     42 H10        -1.3094    0.3113    2.3352 H         1 <0>         0.0954
     43 H11         1.9034   -2.0388   -1.3986 H         1 <0>         0.0890
     44 H12         1.7997   -1.6224    0.3289 H         1 <0>         0.0817
     45 H13         0.1757   -3.4639    0.6753 H         1 <0>         0.0631
     46 H14         0.2794   -3.8804   -1.0521 H         1 <0>         0.0773
     47 H15         2.7051   -4.3279   -0.7986 H         1 <0>         0.0703
     48 H16         2.6014   -3.9114    0.9289 H         1 <0>         0.0674
     49 H17         0.9774   -5.7529    1.2753 H         1 <0>         0.0733
     50 H18         1.0811   -6.1694   -0.4521 H         1 <0>         0.0755
     51 H19         3.5069   -6.6169   -0.1986 H         1 <0>         0.0885
     52 H20         3.4031   -6.2004    1.5289 H         1 <0>         0.0876
     53 H21         1.7791   -8.0420    1.8753 H         1 <0>         0.1330
     54 H22         1.8829   -8.4584    0.1479 H         1 <0>         0.1338
     55 H23         3.3262   -9.8127    1.4781 H         1 <0>         0.4385
     56 H24         4.2112   -8.8715    0.4554 H         1 <0>         0.4357
     57 H25        -1.2417    0.9012   -0.4513 H         1 <0>         0.2098
     58 H26        -2.7496    2.7479   -1.0528 H         1 <0>         0.1290
     59 H27        -3.6698    2.9003   -3.3289 H         1 <0>         0.1359
     60 H28        -1.5714   -0.6462   -4.4371 H         1 <0>         0.1453
     61 H29         4.1152   -8.4860    2.0545 H         1 <0>         0.4350
@<TRIPOS>BOND
     1    1    2 1
     2    1   34 1
     3    1   35 1
     4    1   36 1
     5    2    3 1
     6    2    4 1
     7    2   17 1
     8    4   14 1
     9    4    5 2
    10    5    6 1
    11    6   11 ar
    12    6    7 ar
    13    7    8 ar
    14    7   37 1
    15    8    9 ar
    16    8   16 1
    17    9   10 ar
    18    9   38 1
    19   10   11 ar
    20   10   39 1
    21   11   12 1
    22   12   13 2
    23   12   14 am
    24   14   15 1
    25   15   40 1
    26   15   41 1
    27   15   42 1
    28   17   18 1
    29   17   25 am
    30   18   19 1
    31   18   43 1
    32   18   44 1
    33   19   20 1
    34   19   45 1
    35   19   46 1
    36   20   21 1
    37   20   47 1
    38   20   48 1
    39   21   22 1
    40   21   49 1
    41   21   50 1
    42   22   23 1
    43   22   51 1
    44   22   52 1
    45   23   24 1
    46   23   53 1
    47   23   54 1
    48   24   55 1
    49   24   56 1
    50   24   61 1
    51   25   26 2
    52   25   27 1
    53   27   32 ar
    54   27   28 ar
    55   28   29 ar
    56   28   57 1
    57   29   30 ar
    58   29   58 1
    59   30   31 ar
    60   30   59 1
    61   31   32 ar
    62   31   33 1
    63   32   60 1
@<TRIPOS>MOLECULE
ZINC39685083
   60    63     0     0     0
SMALL
USER_CHARGES

@<TRIPOS>ATOM
      1 C1         -5.5171   -4.5051   -0.6086 C.ar      1 <0>        -0.0890
      2 C2         -6.0518   -3.6003    0.2898 C.ar      1 <0>        -0.1212
      3 C3         -5.2191   -2.8675    1.1151 C.ar      1 <0>        -0.1141
      4 C4         -3.8482   -3.0383    1.0435 C.ar      1 <0>         0.0721
      5 C5         -3.3098   -3.9473    0.1417 C.ar      1 <0>         0.0896
      6 C6         -4.1486   -4.6803   -0.6842 C.ar      1 <0>        -0.1828
      7 O1         -1.9630   -4.1178    0.0685 O.3       1 <0>        -0.3072
      8 C7         -1.4801   -5.0694   -0.8818 C.3       1 <0>         0.0446
      9 C8          0.0477   -5.1226   -0.8193 C.3       1 <0>         0.1196
     10 N1          0.4654   -5.6345    0.4883 N.am      1 <0>        -0.7242
     11 C9          1.7761   -5.7687    0.7721 C.2       1 <0>         0.5213
     12 O2          2.6097   -5.4658   -0.0550 O.2       1 <0>        -0.5197
     13 C10         2.2057   -6.2953    2.1171 C.3       1 <0>        -0.1134
     14 H1          1.4551   -6.0625    2.8724 H         1 <0>         0.1128
     15 C11         3.5739   -5.6986    2.5165 C.3       1 <0>         0.1163
     16 N2          4.2811   -6.8076    3.1990 N.am      1 <0>        -0.6191
     17 C12         3.9274   -8.0117    2.4097 C.3       1 <0>         0.0923
     18 C13         2.4421   -7.8133    2.0472 C.3       1 <0>        -0.0725
     19 C14         2.1710   -8.3260    0.6361 C.3       1 <0>        -0.1481
     20 C15         2.3558   -9.8458    0.6057 C.3       1 <0>        -0.0079
     21 N3          1.4339  -10.4720    1.5610 N.4       1 <0>        -0.5049
     22 C16         1.7618  -10.0450    2.9266 C.3       1 <0>        -0.0115
     23 C17         1.5518   -8.5336    3.0552 C.3       1 <0>        -0.1359
     24 C18         5.0679   -6.7375    4.2911 C.2       1 <0>         0.5818
     25 O3          5.1610   -5.6938    4.9072 O.2       1 <0>        -0.5076
     26 C19         5.8176   -7.9297    4.7395 C.ar      1 <0>        -0.1205
     27 C20         6.0722   -8.9737    3.8483 C.ar      1 <0>        -0.1026
     28 C21         6.7722  -10.0835    4.2726 C.ar      1 <0>        -0.1003
     29 C22         7.2223  -10.1637    5.5798 C.ar      1 <0>        -0.0662
     30 C23         6.9729   -9.1314    6.4685 C.ar      1 <0>        -0.0910
     31 C24         6.2790   -8.0139    6.0544 C.ar      1 <0>        -0.0498
     32 Br1         8.1809  -11.6894    6.1537 Br        1 <0>        -0.0278
     33 F1         -3.0342   -2.3217    1.8492 F         1 <0>        -0.1306
     34 H2         -6.1704   -5.0791   -1.2491 H         1 <0>         0.1353
     35 H3         -7.1218   -3.4655    0.3468 H         1 <0>         0.1389
     36 H4         -5.6391   -2.1611    1.8158 H         1 <0>         0.1461
     37 H5         -3.7324   -5.3876   -1.3862 H         1 <0>         0.1361
     38 H6         -1.8877   -6.0534   -0.6499 H         1 <0>         0.0701
     39 H7         -1.7927   -4.7735   -1.8833 H         1 <0>         0.0871
     40 H8          0.4207   -5.7814   -1.6034 H         1 <0>         0.0960
     41 H9          0.4523   -4.1207   -0.9634 H         1 <0>         0.0881
     42 H10        -0.2014   -5.8768    1.1498 H         1 <0>         0.4040
     43 H11         4.1250   -5.3849    1.6299 H         1 <0>         0.1008
     44 H12         3.4379   -4.8584    3.1974 H         1 <0>         0.0996
     45 H13         4.5360   -8.0673    1.5072 H         1 <0>         0.0915
     46 H14         4.0543   -8.9117    3.0113 H         1 <0>         0.0948
     47 H15         1.1492   -8.0779    0.3489 H         1 <0>         0.0970
     48 H16         2.8684   -7.8606   -0.0603 H         1 <0>         0.1285
     49 H17         2.1465  -10.2170   -0.3975 H         1 <0>         0.1405
     50 H18         3.3824  -10.0922    0.8769 H         1 <0>         0.1330
     51 H19         0.4878  -10.1980    1.3424 H         1 <0>         0.4283
     52 H20         1.1146  -10.5630    3.6343 H         1 <0>         0.1412
     53 H21         2.8025  -10.2866    3.1426 H         1 <0>         0.1323
     54 H22         1.8126   -8.2146    4.0643 H         1 <0>         0.1195
     55 H23         0.5076   -8.2931    2.8555 H         1 <0>         0.0982
     56 H24         5.7214   -8.9124    2.8287 H         1 <0>         0.1405
     57 H25         6.9695  -10.8920    3.5842 H         1 <0>         0.1408
     58 H26         7.3261   -9.1999    7.4868 H         1 <0>         0.1465
     59 H27         6.0889   -7.2075    6.7472 H         1 <0>         0.1482
     60 H28         1.5143  -11.4757    1.4955 H         1 <0>         0.4347
@<TRIPOS>BOND
     1    1    6 ar
     2    1    2 ar
     3    1   34 1
     4    2    3 ar
     5    2   35 1
     6    3    4 ar
     7    3   36 1
     8    4    5 ar
     9    4   33 1
    10    5    6 ar
    11    5    7 1
    12    6   37 1
    13    7    8 1
    14    8    9 1
    15    8   38 1
    16    8   39 1
    17    9   10 1
    18    9   40 1
    19    9   41 1
    20   10   11 am
    21   10   42 1
    22   11   12 2
    23   11   13 1
    24   13   14 1
    25   13   18 1
    26   13   15 1
    27   15   16 1
    28   15   43 1
    29   15   44 1
    30   16   17 1
    31   16   24 am
    32   17   18 1
    33   17   45 1
    34   17   46 1
    35   18   23 1
    36   18   19 1
    37   19   20 1
    38   19   47 1
    39   19   48 1
    40   20   21 1
    41   20   49 1
    42   20   50 1
    43   21   22 1
    44   21   51 1
    45   21   60 1
    46   22   23 1
    47   22   52 1
    48   22   53 1
    49   23   54 1
    50   23   55 1
    51   24   25 2
    52   24   26 1
    53   26   31 ar
    54   26   27 ar
    55   27   28 ar
    56   27   56 1
    57   28   29 ar
    58   28   57 1
    59   29   30 ar
    60   29   32 1
    61   30   31 ar
    62   30   58 1
    63   31   59 1
@<TRIPOS>MOLECULE
ZINC02954967
   56    59     0     0     0
SMALL
USER_CHARGES

@<TRIPOS>ATOM
      1 C1          4.3919   -1.7546    2.2484 C.3       1 <0>        -0.1575
      2 C2          3.5520   -3.0147    2.0306 C.3       1 <0>         0.0479
      3 O1          2.2650   -2.6485    1.5290 O.3       1 <0>        -0.2983
      4 C3          1.3894   -3.6584    1.2797 C.ar      1 <0>         0.1886
      5 C4          1.7634   -4.9735    1.5200 C.ar      1 <0>        -0.1950
      6 C5          0.8790   -6.0010    1.2683 C.ar      1 <0>        -0.0345
      7 C6         -0.3952   -5.7169    0.7713 C.ar      1 <0>        -0.0378
      8 C7         -0.7672   -4.3919    0.5315 C.ar      1 <0>        -0.0452
      9 C8          0.1223   -3.3707    0.7912 C.ar      1 <0>        -0.1349
     10 N1         -1.2762   -6.7334    0.5195 N.pl3     1 <0>        -0.4802
     11 C9         -2.5280   -6.6287    0.9056 C.2       1 <0>         0.5027
     12 C10        -3.5319   -7.6355    0.5054 C.2       1 <0>        -0.2502
     13 C11        -4.6176   -7.8083    1.3353 C.2       1 <0>         0.1534
     14 C12        -4.6819   -6.9767    2.5390 C.ar      1 <0>        -0.1214
     15 C13        -5.5880   -7.2447    3.5720 C.ar      1 <0>        -0.0595
     16 C14        -5.5887   -6.4187    4.6770 C.ar      1 <0>         0.1416
     17 N2         -4.7577   -5.3966    4.7675 N.ar      1 <0>        -0.4135
     18 C15        -3.8879   -5.1032    3.8221 C.ar      1 <0>         0.1683
     19 C16        -3.8142   -5.8764    2.6722 C.ar      1 <0>         0.0596
     20 O2         -2.9325   -5.5946    1.6883 O.3       1 <0>        -0.1870
     21 C17        -2.9682   -3.9213    3.9906 C.3       1 <0>        -0.1162
     22 C18        -6.5404   -8.4089    3.4793 C.3       1 <0>         0.1077
     23 O3         -7.3494   -8.4575    4.6563 O.3       1 <0>        -0.5633
     24 C19        -3.3785   -8.4225   -0.7315 C.2       1 <0>         0.5738
     25 O4         -4.1509   -9.3300   -0.9746 O.2       1 <0>        -0.4645
     26 N3         -2.3823   -8.1365   -1.5931 N.am      1 <0>        -0.6721
     27 C20        -2.2831   -8.8315   -2.8036 C.ar      1 <0>         0.1387
     28 C21        -2.6424  -10.1716   -2.8673 C.ar      1 <0>        -0.0930
     29 C22        -2.5441  -10.8568   -4.0626 C.ar      1 <0>        -0.1022
     30 C23        -2.0871  -10.2095   -5.1977 C.ar      1 <0>         0.0760
     31 C24        -1.7271   -8.8717   -5.1373 C.ar      1 <0>         0.0933
     32 C25        -1.8307   -8.1807   -3.9435 C.ar      1 <0>        -0.1441
     33 F1         -1.2805   -8.2416   -6.2458 F         1 <0>        -0.1159
     34 F2         -1.9914  -10.8820   -6.3655 F         1 <0>        -0.1168
     35 H1          5.3736   -2.0340    2.6310 H         1 <0>         0.0876
     36 H2          4.5076   -1.2270    1.3017 H         1 <0>         0.0716
     37 H3          3.8929   -1.1052    2.9677 H         1 <0>         0.0715
     38 H4          4.0509   -3.6642    1.3113 H         1 <0>         0.0721
     39 H5          3.4363   -3.5424    2.9773 H         1 <0>         0.0719
     40 H6          2.7487   -5.1922    1.9042 H         1 <0>         0.1538
     41 H7          1.1710   -7.0239    1.4548 H         1 <0>         0.1477
     42 H8         -1.7512   -4.1675    0.1473 H         1 <0>         0.1445
     43 H9         -0.1660   -2.3457    0.6103 H         1 <0>         0.1572
     44 H10        -5.3902   -8.5276    1.1073 H         1 <0>         0.2017
     45 H11        -6.2818   -6.6114    5.4826 H         1 <0>         0.1982
     46 H12        -2.0505   -4.2425    4.4834 H         1 <0>         0.0960
     47 H13        -2.7286   -3.5049    3.0122 H         1 <0>         0.0861
     48 H14        -3.4602   -3.1618    4.5982 H         1 <0>         0.1020
     49 H15        -7.1789   -8.2872    2.6043 H         1 <0>         0.0843
     50 H16        -5.9737   -9.3357    3.3895 H         1 <0>         0.0823
     51 H17        -7.9874   -9.1841    4.6653 H         1 <0>         0.4044
     52 H18        -1.7342   -7.4489   -1.3741 H         1 <0>         0.3976
     53 H19        -2.9984  -10.6779   -1.9823 H         1 <0>         0.1589
     54 H20        -2.8237  -11.8989   -4.1115 H         1 <0>         0.1602
     55 H21        -1.5553   -7.1375   -3.8971 H         1 <0>         0.1513
     56 H22        -0.9766   -7.5311    0.0562 H         1 <0>         0.4509
@<TRIPOS>BOND
     1    1    2 1
     2    1   35 1
     3    1   36 1
     4    1   37 1
     5    2    3 1
     6    2   38 1
     7    2   39 1
     8    3    4 1
     9    4    9 ar
    10    4    5 ar
    11    5    6 ar
    12    5   40 1
    13    6    7 ar
    14    6   41 1
    15    7    8 ar
    16    7   10 1
    17    8    9 ar
    18    8   42 1
    19    9   43 1
    20   10   11 2
    21   10   56 1
    22   11   20 1
    23   11   12 1
    24   12   13 2
    25   12   24 1
    26   13   14 1
    27   13   44 1
    28   14   19 ar
    29   14   15 ar
    30   15   16 ar
    31   15   22 1
    32   16   17 ar
    33   16   45 1
    34   17   18 ar
    35   18   19 ar
    36   18   21 1
    37   19   20 1
    38   21   46 1
    39   21   47 1
    40   21   48 1
    41   22   23 1
    42   22   49 1
    43   22   50 1
    44   23   51 1
    45   24   25 2
    46   24   26 am
    47   26   27 1
    48   26   52 1
    49   27   32 ar
    50   27   28 ar
    51   28   29 ar
    52   28   53 1
    53   29   30 ar
    54   29   54 1
    55   30   31 ar
    56   30   34 1
    57   31   32 ar
    58   31   33 1
    59   32   55 1
@<TRIPOS>MOLECULE
ZINC09096451
   62    65     0     0     0
SMALL
USER_CHARGES
N'-(2-ethoxyphenyl)-6-[[4-(3-methoxyphenyl)piperazin-1-yl]methyl]-1,3,5-triazine-2,4-diamine
@<TRIPOS>ATOM
      1 C1          0.1299    7.7902   -2.0512 C.3       1 <0>        -0.1532
      2 C2          1.4496    7.3132   -1.4415 C.3       1 <0>         0.0559
      3 O1          1.2962    5.9766   -0.9600 O.3       1 <0>        -0.3225
      4 C3          2.3845    5.3991   -0.3841 C.ar      1 <0>         0.1127
      5 C4          3.5731    6.1035   -0.2844 C.ar      1 <0>        -0.1877
      6 C5          4.6785    5.5154    0.3021 C.ar      1 <0>        -0.0839
      7 C6          4.6018    4.2241    0.7906 C.ar      1 <0>        -0.1364
      8 C7          3.4182    3.5163    0.6993 C.ar      1 <0>        -0.0842
      9 C8          2.3065    4.0979    0.1073 C.ar      1 <0>         0.1098
     10 N1          1.1072    3.3808    0.0092 N.pl3     1 <0>        -0.5968
     11 C9          1.1266    2.0001    0.0063 C.ar      1 <0>         0.6364
     12 N2         -0.0161    1.3173    0.0313 N.ar      1 <0>        -0.6179
     13 C10         0.0015   -0.0038    0.0281 C.ar      1 <0>         0.3777
     14 N3          1.1525   -0.6529    0.0005 N.ar      1 <0>        -0.6230
     15 C11         2.2991    0.0226   -0.0246 C.ar      1 <0>         0.6392
     16 N4          2.2856    1.3512   -0.0220 N.ar      1 <0>        -0.6214
     17 N5          3.5003   -0.6560   -0.0530 N.pl3     1 <0>        -0.7901
     18 C12        -1.2943   -0.7727    0.0566 C.3       1 <0>         0.0825
     19 C13        -2.1056    0.2382   -1.9891 C.3       1 <0>         0.0017
     20 C14        -2.4952   -0.0531   -3.4402 C.3       1 <0>         0.0283
     21 N6         -3.6210   -0.9974   -3.4623 N.pl3     1 <0>        -0.4847
     22 C15        -3.2629   -2.2552   -2.7920 C.3       1 <0>         0.0214
     23 C16        -2.8733   -1.9639   -1.3409 C.3       1 <0>         0.0042
     24 C17        -4.0518   -1.2322   -4.7700 C.ar      1 <0>         0.1282
     25 C18        -4.0895   -2.5291   -5.2680 C.ar      1 <0>        -0.2025
     26 C19        -4.5201   -2.7614   -6.5595 C.ar      1 <0>        -0.0495
     27 C20        -4.9045   -1.7047   -7.3633 C.ar      1 <0>        -0.2179
     28 C21        -4.8641   -0.4071   -6.8732 C.ar      1 <0>         0.1573
     29 C22        -4.4376   -0.1700   -5.5758 C.ar      1 <0>        -0.1667
     30 O2         -5.2420    0.6308   -7.6650 O.3       1 <0>        -0.3139
     31 C23        -5.6703    0.3129   -8.9907 C.3       1 <0>         0.0243
     32 H1          0.2469    8.8098   -2.4185 H         1 <0>         0.0833
     33 H2         -0.1460    7.1356   -2.8780 H         1 <0>         0.0654
     34 H3         -0.6514    7.7651   -1.2916 H         1 <0>         0.0672
     35 H4          1.7255    7.9678   -0.6147 H         1 <0>         0.0666
     36 H5          2.2309    7.3384   -2.2011 H         1 <0>         0.0654
     37 H6          3.6363    7.1124   -0.6646 H         1 <0>         0.1363
     38 H7          5.6042    6.0662    0.3793 H         1 <0>         0.1314
     39 H8          5.4676    3.7691    1.2486 H         1 <0>         0.1310
     40 H9          3.3598    2.5094    1.0856 H         1 <0>         0.1525
     41 H10         0.2631    3.8542   -0.0567 H         1 <0>         0.4338
     42 H11         3.5095   -1.6260   -0.0546 H         1 <0>         0.4246
     43 H12         4.3356   -0.1631   -0.0713 H         1 <0>         0.4262
     44 H13        -1.1409   -1.7246    0.5650 H         1 <0>         0.1596
     45 H14        -2.0487   -0.1937    0.5892 H         1 <0>         0.1614
     46 H15        -2.9473    0.6990   -1.4721 H         1 <0>         0.1484
     47 H16        -1.2520    0.9159   -1.9708 H         1 <0>         0.1341
     48 H17        -1.6448   -0.4889   -3.9647 H         1 <0>         0.0675
     49 H18        -2.7890    0.8746   -3.9312 H         1 <0>         0.1299
     50 H19        -2.4212   -2.7160   -3.3090 H         1 <0>         0.0728
     51 H20        -4.1164   -2.9329   -2.8103 H         1 <0>         0.1338
     52 H21        -2.5794   -2.8916   -0.8500 H         1 <0>         0.1432
     53 H22        -3.7236   -1.5283   -0.8161 H         1 <0>         0.1462
     54 H23        -3.7857   -3.3561   -4.6433 H         1 <0>         0.1291
     55 H24        -4.5522   -3.7703   -6.9437 H         1 <0>         0.1326
     56 H25        -5.2366   -1.8892   -8.3743 H         1 <0>         0.1343
     57 H26        -4.4058    0.8392   -5.1926 H         1 <0>         0.1356
     58 H27        -4.8602   -0.1833   -9.5251 H         1 <0>         0.0596
     59 H28        -6.5345   -0.3498   -8.9443 H         1 <0>         0.0607
     60 H29        -5.9430    1.2294   -9.5140 H         1 <0>         0.1069
     61 N7         -1.7266   -1.0310   -1.3335 N.4       1 <0>        -0.3947
     62 H30        -0.9481   -1.4549   -1.8517 H         1 <0>         0.4279
@<TRIPOS>BOND
     1    1    2 1
     2    1   32 1
     3    1   33 1
     4    1   34 1
     5    2    3 1
     6    2   35 1
     7    2   36 1
     8    3    4 1
     9    4    9 ar
    10    4    5 ar
    11    5    6 ar
    12    5   37 1
    13    6    7 ar
    14    6   38 1
    15    7    8 ar
    16    7   39 1
    17    8    9 ar
    18    8   40 1
    19    9   10 1
    20   10   11 1
    21   10   41 1
    22   11   16 ar
    23   11   12 ar
    24   12   13 ar
    25   13   14 ar
    26   13   18 1
    27   14   15 ar
    28   15   16 ar
    29   15   17 1
    30   17   42 1
    31   17   43 1
    32   18   44 1
    33   18   45 1
    34   18   61 1
    35   19   20 1
    36   19   46 1
    37   19   47 1
    38   19   61 1
    39   20   21 1
    40   20   48 1
    41   20   49 1
    42   21   22 1
    43   21   24 1
    44   22   23 1
    45   22   50 1
    46   22   51 1
    47   23   52 1
    48   23   53 1
    49   23   61 1
    50   24   29 ar
    51   24   25 ar
    52   25   26 ar
    53   25   54 1
    54   26   27 ar
    55   26   55 1
    56   27   28 ar
    57   27   56 1
    58   28   29 ar
    59   28   30 1
    60   29   57 1
    61   30   31 1
    62   31   58 1
    63   31   59 1
    64   31   60 1
    65   61   62 1
@<TRIPOS>MOLECULE
ZINC16513010
   55    56     0     0     0
SMALL
USER_CHARGES
(2S)-2-[methyl-[2-oxo-2-(p-tolylamino)ethyl]amino]-N-[2-oxo-2-[(2,3,4-trifluorophenyl)amino]ethyl]propanamide
@<TRIPOS>ATOM
      1 C1          2.6481   17.3133    3.5503 C.3       1 <0>        -0.1226
      2 C2          2.9872   15.8465    3.4838 C.ar      1 <0>        -0.0783
      3 C3          2.8343   15.1562    2.2954 C.ar      1 <0>        -0.1027
      4 C4          3.1441   13.8118    2.2311 C.ar      1 <0>        -0.1073
      5 C5          3.6098   13.1533    3.3617 C.ar      1 <0>         0.1111
      6 C6          3.7568   13.8480    4.5551 C.ar      1 <0>        -0.1257
      7 C7          3.4511   15.1938    4.6112 C.ar      1 <0>        -0.1009
      8 N1          3.9247   11.7913    3.2999 N.am      1 <0>        -0.6438
      9 C8          4.4547   11.2726    2.1745 C.2       1 <0>         0.5064
     10 O1          4.7498   12.0016    1.2512 O.2       1 <0>        -0.5111
     11 C9          4.6807    9.7868    2.0635 C.3       1 <0>        -0.0352
     12 C10         6.6117   10.0457    0.6259 C.3       1 <0>        -0.0532
     13 C11         5.2788    8.0276    0.5109 C.3       1 <0>         0.0104
     14 H1          5.8093    7.8190   -0.4181 H         1 <0>         0.1736
     15 C12         5.9873    7.3261    1.6714 C.3       1 <0>        -0.1831
     16 C13         3.8636    7.5205    0.4061 C.2       1 <0>         0.5078
     17 O2          2.9356    8.3006    0.4427 O.2       1 <0>        -0.5234
     18 N2          3.6291    6.2001    0.2717 N.am      1 <0>        -0.6898
     19 C14         2.2533    5.7071    0.1698 C.3       1 <0>         0.0974
     20 C15         2.2665    4.2069    0.0282 C.2       1 <0>         0.5155
     21 O3          3.3213    3.6083    0.0139 O.2       1 <0>        -0.5092
     22 N3          1.1061    3.5302   -0.0824 N.am      1 <0>        -0.6543
     23 C16         1.1101    2.1288   -0.0887 C.ar      1 <0>         0.1272
     24 C17         2.1531    1.4341    0.5082 C.ar      1 <0>        -0.0837
     25 C18         2.1564    0.0525    0.5018 C.ar      1 <0>        -0.1091
     26 C19         1.1209   -0.6416   -0.1003 C.ar      1 <0>         0.0912
     27 C20         0.0773    0.0479   -0.6982 C.ar      1 <0>         0.0600
     28 C21         0.0701    1.4327   -0.6934 C.ar      1 <0>         0.0702
     29 F1         -0.9434    2.1061   -1.2804 F         1 <0>        -0.1140
     30 F2         -0.9323   -0.6310   -1.2857 F         1 <0>        -0.1069
     31 F3          1.1276   -1.9925   -0.1057 F         1 <0>        -0.1121
     32 H2          1.6006   17.4319    3.8272 H         1 <0>         0.0770
     33 H3          3.2782   17.7984    4.2959 H         1 <0>         0.0715
     34 H4          2.8204   17.7706    2.5760 H         1 <0>         0.0710
     35 H5          2.4718   15.6688    1.4166 H         1 <0>         0.1312
     36 H6          3.0248   13.2733    1.3026 H         1 <0>         0.1312
     37 H7          4.1145   13.3377    5.4371 H         1 <0>         0.1296
     38 H8          3.5698   15.7357    5.5378 H         1 <0>         0.1335
     39 H9          3.7615   11.2205    4.0670 H         1 <0>         0.4186
     40 H10         3.7295    9.2655    2.1711 H         1 <0>         0.1672
     41 H11         5.3632    9.4633    2.8494 H         1 <0>         0.1627
     42 H12         6.9567    9.9398   -0.4026 H         1 <0>         0.1294
     43 H13         6.5867   11.1020    0.8938 H         1 <0>         0.1408
     44 H14         7.2923    9.5175    1.2936 H         1 <0>         0.1260
     45 H15         5.9989    6.2508    1.4933 H         1 <0>         0.1149
     46 H16         7.0109    7.6929    1.7472 H         1 <0>         0.1021
     47 H17         5.4568    7.5348    2.6005 H         1 <0>         0.0895
     48 H18         4.3712    5.5763    0.2424 H         1 <0>         0.4229
     49 H19         1.7722    6.1502   -0.7023 H         1 <0>         0.1198
     50 H20         1.7012    5.9825    1.0684 H         1 <0>         0.1209
     51 H21         0.2683    4.0132   -0.1577 H         1 <0>         0.4245
     52 H22         2.9620    1.9737    0.9782 H         1 <0>         0.1711
     53 H23         2.9683   -0.4869    0.9668 H         1 <0>         0.1632
     54 N4          5.2466    9.4889    0.7309 N.4       1 <0>        -0.3676
     55 H24         4.6538    9.9213    0.0126 H         1 <0>         0.4447
@<TRIPOS>BOND
     1    1    2 1
     2    1   32 1
     3    1   33 1
     4    1   34 1
     5    2    7 ar
     6    2    3 ar
     7    3    4 ar
     8    3   35 1
     9    4    5 ar
    10    4   36 1
    11    5    6 ar
    12    5    8 1
    13    6    7 ar
    14    6   37 1
    15    7   38 1
    16    8    9 am
    17    8   39 1
    18    9   10 2
    19    9   11 1
    20   11   40 1
    21   11   41 1
    22   11   54 1
    23   12   42 1
    24   12   43 1
    25   12   44 1
    26   12   54 1
    27   13   14 1
    28   13   15 1
    29   13   16 1
    30   13   54 1
    31   15   45 1
    32   15   46 1
    33   15   47 1
    34   16   17 2
    35   16   18 am
    36   18   19 1
    37   18   48 1
    38   19   20 1
    39   19   49 1
    40   19   50 1
    41   20   21 2
    42   20   22 am
    43   22   23 1
    44   22   51 1
    45   23   28 ar
    46   23   24 ar
    47   24   25 ar
    48   24   52 1
    49   25   26 ar
    50   25   53 1
    51   26   27 ar
    52   26   31 1
    53   27   28 ar
    54   27   30 1
    55   28   29 1
    56   54   55 1
@<TRIPOS>MOLECULE
ZINC25510935
   58    61     0     0     0
SMALL
USER_CHARGES
2-[4-[2-[[4-amino-5-(4-fluorophenyl)-1,2,4-triazol-3-yl]sulfanyl]acetyl]piperazin-1-yl]-N-(3-fluorophenyl)acetamide
@<TRIPOS>ATOM
      1 C1          0.6023   -7.8900    7.4577 C.ar      1 <0>        -0.0700
      2 C2          1.0700   -8.3771    6.2526 C.ar      1 <0>        -0.1275
      3 C3          1.2475   -9.7433    6.0783 C.ar      1 <0>         0.1535
      4 C4          0.9648  -10.6162    7.1205 C.ar      1 <0>        -0.1718
      5 C5          0.5019  -10.1229    8.3268 C.ar      1 <0>         0.1244
      6 C6          0.3207   -8.7597    8.4945 C.ar      1 <0>        -0.1523
      7 F1          0.2267  -10.9706    9.3421 F         1 <0>        -0.1283
      8 N1          1.7160  -10.2389    4.8565 N.am      1 <0>        -0.6579
      9 C7          1.3473   -9.6469    3.7033 C.2       1 <0>         0.5035
     10 O1          0.6791   -8.6350    3.7276 O.2       1 <0>        -0.5121
     11 C8          1.7654  -10.2422    2.3835 C.3       1 <0>        -0.0259
     12 N2          1.3561   -9.3486    1.2917 N.4       1 <0>        -0.3810
     13 C9         -0.1076   -9.2560    1.2079 C.3       1 <0>        -0.0336
     14 C10        -0.4951   -8.4659   -0.0466 C.3       1 <0>         0.0927
     15 N3          0.2093   -7.1750   -0.0219 N.am      1 <0>        -0.6251
     16 C11         1.6648   -7.1805    0.1902 C.3       1 <0>         0.0837
     17 C12         1.9664   -8.0208    1.4413 C.3       1 <0>        -0.0365
     18 C13        -0.4602   -6.0181   -0.1946 C.2       1 <0>         0.5468
     19 O2         -1.6597   -6.0326   -0.3733 O.2       1 <0>        -0.4948
     20 C14         0.2816   -4.7067   -0.1656 C.3       1 <0>        -0.1540
     21 S1         -0.8853   -3.3476   -0.4254 S.3       1 <0>         0.0874
     22 C15         0.2188   -1.9768   -0.3458 C.2       1 <0>         0.1103
     23 N4          1.5168   -2.0318   -0.1475 N.2       1 <0>        -0.2818
     24 N5          2.0138   -0.8467   -0.1470 N.2       1 <0>        -0.2516
     25 C16         1.0641    0.0376   -0.3448 C.2       1 <0>         0.2083
     26 N6         -0.1157   -0.6585   -0.4724 N.pl3     1 <0>        -0.2026
     27 N7         -1.3614   -0.1397   -0.6846 N.3       1 <0>        -0.7651
     28 C17         1.2301    1.5051   -0.4116 C.ar      1 <0>        -0.0259
     29 C18         0.1159    2.3409   -0.3197 C.ar      1 <0>        -0.0866
     30 C19         0.2769    3.7094   -0.3787 C.ar      1 <0>        -0.1435
     31 C20         1.5409    4.2547   -0.5382 C.ar      1 <0>         0.1188
     32 C21         2.6499    3.4293   -0.6348 C.ar      1 <0>        -0.1432
     33 C22         2.5009    2.0597   -0.5726 C.ar      1 <0>        -0.0446
     34 F2          1.6925    5.5957   -0.6002 F         1 <0>        -0.1291
     35 H1          0.4608   -6.8277    7.5916 H         1 <0>         0.1424
     36 H2          1.2935   -7.6960    5.4448 H         1 <0>         0.1419
     37 H3          1.1059  -11.6789    6.9892 H         1 <0>         0.1428
     38 H4         -0.0409   -8.3759    9.4370 H         1 <0>         0.1445
     39 H5          2.3852  -11.1117    4.8373 H         1 <0>         0.4493
     40 H6          2.8584  -10.3651    2.3665 H         1 <0>         0.1657
     41 H7          1.2841  -11.2229    2.2547 H         1 <0>         0.1676
     42 H8         -0.5364  -10.2675    1.1527 H         1 <0>         0.1422
     43 H9         -0.4942   -8.7421    2.1003 H         1 <0>         0.1545
     44 H10        -0.2049   -9.0346   -0.9423 H         1 <0>         0.0987
     45 H11        -1.5825   -8.2999   -0.0541 H         1 <0>         0.1385
     46 H12         2.1616   -7.6191   -0.6878 H         1 <0>         0.1041
     47 H13         2.0183   -6.1488    0.3342 H         1 <0>         0.1346
     48 H14         1.5488   -7.5232    2.3290 H         1 <0>         0.1545
     49 H15         3.0547   -8.1287    1.5594 H         1 <0>         0.1439
     50 H16         0.7741   -4.5856    0.8105 H         1 <0>         0.1330
     51 H17         1.0397   -4.6965   -0.9626 H         1 <0>         0.1352
     52 H18        -1.4969    0.9487   -0.7686 H         1 <0>         0.4469
     53 H19        -2.2290   -0.8103   -0.7715 H         1 <0>         0.4466
     54 H20        -0.8701    1.9168   -0.1996 H         1 <0>         0.1316
     55 H21        -0.5841    4.3571   -0.3040 H         1 <0>         0.1478
     56 H22         3.6327    3.8595   -0.7593 H         1 <0>         0.1495
     57 H23         3.3657    1.4173   -0.6487 H         1 <0>         0.1502
     58 H24         1.7187   -9.7788    0.3465 H         1 <0>         0.4490
@<TRIPOS>BOND
     1    1    6 ar
     2    1    2 ar
     3    1   35 1
     4    2    3 ar
     5    2   36 1
     6    3    4 ar
     7    3    8 1
     8    4    5 ar
     9    4   37 1
    10    5    6 ar
    11    5    7 1
    12    6   38 1
    13    8    9 am
    14    8   39 1
    15    9   10 2
    16    9   11 1
    17   11   12 1
    18   11   40 1
    19   11   41 1
    20   12   17 1
    21   12   13 1
    22   12   58 1
    23   13   14 1
    24   13   42 1
    25   13   43 1
    26   14   15 1
    27   14   44 1
    28   14   45 1
    29   15   16 1
    30   15   18 am
    31   16   17 1
    32   16   46 1
    33   16   47 1
    34   17   48 1
    35   17   49 1
    36   18   19 2
    37   18   20 1
    38   20   21 1
    39   20   50 1
    40   20   51 1
    41   21   22 1
    42   22   26 1
    43   22   23 2
    44   23   24 1
    45   24   25 2
    46   25   26 1
    47   25   28 1
    48   26   27 1
    49   27   52 1
    50   27   53 1
    51   28   33 ar
    52   28   29 ar
    53   29   30 ar
    54   29   54 1
    55   30   31 ar
    56   30   55 1
    57   31   32 ar
    58   31   34 1
    59   32   33 ar
    60   32   56 1
    61   33   57 1
@<TRIPOS>MOLECULE
ZINC39708720
   49    52     0     0     0
SMALL
USER_CHARGES

@<TRIPOS>ATOM
      1 C1          0.0952    1.7551    0.0591 C.3       1 <0>        -0.1619
      2 C2          0.0224    0.2279    0.0037 C.3       1 <0>        -0.1065
      3 C3          0.5493   -0.2592   -1.3476 C.3       1 <0>        -0.1327
      4 H1          0.0063    0.2395   -2.1505 H         1 <0>         0.1344
      5 C4          0.3509   -1.7490   -1.4568 C.2       1 <0>         0.5237
      6 O1          1.2523   -2.5042   -1.1597 O.2       1 <0>        -0.4896
      7 N1         -0.8281   -2.2423   -1.8845 N.am      1 <0>        -0.6647
      8 C5         -0.9803   -3.6192   -2.0817 C.ar      1 <0>         0.1961
      9 C6         -1.7730   -4.0900   -3.1203 C.ar      1 <0>        -0.1672
     10 C7         -1.9211   -5.4497   -3.3122 C.ar      1 <0>        -0.0013
     11 C8         -1.2812   -6.3419   -2.4716 C.ar      1 <0>        -0.6882
     12 C9         -0.4915   -5.8763   -1.4363 C.ar      1 <0>         0.0072
     13 C10        -0.3343   -4.5179   -1.2429 C.ar      1 <0>        -0.1421
     14 S1         -1.4728   -8.0758   -2.7199 S.o2      1 <0>         2.7004
     15 O2         -1.2120   -8.6965   -1.4686 O.2       1 <0>        -0.9555
     16 O3         -2.6980   -8.2532   -3.4176 O.2       1 <0>        -0.9562
     17 N2         -0.2682   -8.5592   -3.7483 N.pl3     1 <0>        -1.2475
     18 S2          2.3166    0.1270   -1.4823 S.3       1 <0>         0.2176
     19 C11         2.7050   -0.2337   -3.1627 C.2       1 <0>         0.2309
     20 N3          1.7242   -0.5728   -3.9645 N.2       1 <0>        -0.5096
     21 C12         2.0649   -0.9462   -5.3352 C.3       1 <0>         0.2308
     22 H2          2.2462   -2.0196   -5.3905 H         1 <0>         0.1966
     23 C13         3.3400   -0.1904   -5.6806 C.2       1 <0>         0.0240
     24 C14         3.1040    0.3922   -6.8885 C.ar      1 <0>        -0.0267
     25 C15         3.9357    1.1267   -7.7697 C.ar      1 <0>        -0.0444
     26 C16         3.3737    1.5943   -8.9163 C.ar      1 <0>        -0.1045
     27 C17         2.0367    1.3959   -9.2745 C.ar      1 <0>         0.0343
     28 C18         1.1511    0.7021   -8.5108 C.ar      1 <0>        -0.1737
     29 C19         1.6731    0.1503   -7.2496 C.ar      1 <0>         0.3301
     30 N4          1.0824   -0.5605   -6.3382 N.pl3     1 <0>        -0.5194
     31 N5          4.3434   -0.0871   -4.8033 N.2       1 <0>        -0.0400
     32 N6          3.9996   -0.1392   -3.5536 N.2       1 <0>        -0.1033
     33 H3          1.1380    2.0706    0.0263 H         1 <0>         0.0667
     34 H4         -0.4385    2.1755   -0.7933 H         1 <0>         0.0637
     35 H5         -0.3621    2.1073    0.9837 H         1 <0>         0.0791
     36 H6          0.6301   -0.1941    0.8041 H         1 <0>         0.0923
     37 H7         -1.0126   -0.0912    0.1265 H         1 <0>         0.0996
     38 H8         -1.5712   -1.6428   -2.0557 H         1 <0>         0.4179
     39 H9         -2.2733   -3.3937   -3.7769 H         1 <0>         0.1354
     40 H10        -2.5378   -5.8165   -4.1195 H         1 <0>         0.1497
     41 H11         0.0067   -6.5757   -0.7813 H         1 <0>         0.1508
     42 H12         0.2867   -4.1549   -0.4373 H         1 <0>         0.1519
     43 H13         0.0886   -9.4592   -3.6883 H         1 <0>         0.4247
     44 H14         0.0806   -7.9424   -4.4107 H         1 <0>         0.4146
     45 H15         4.9753    1.3077   -7.5400 H         1 <0>         0.1792
     46 H16         4.0003    2.1553   -9.5938 H         1 <0>         0.1646
     47 H17         1.6890    1.8161  -10.2067 H         1 <0>         0.1716
     48 H18         0.1232    0.5640   -8.8121 H         1 <0>         0.1833
     49 H19         0.1416   -0.7965   -6.3274 H         1 <0>         0.4636
@<TRIPOS>BOND
     1    1    2 1
     2    1   33 1
     3    1   34 1
     4    1   35 1
     5    2    3 1
     6    2   36 1
     7    2   37 1
     8    3    4 1
     9    3    5 1
    10    3   18 1
    11    5    6 2
    12    5    7 am
    13    7    8 1
    14    7   38 1
    15    8   13 ar
    16    8    9 ar
    17    9   10 ar
    18    9   39 1
    19   10   11 ar
    20   10   40 1
    21   11   12 ar
    22   11   14 1
    23   12   13 ar
    24   12   41 1
    25   13   42 1
    26   14   15 2
    27   14   16 2
    28   14   17 1
    29   17   43 1
    30   17   44 1
    31   18   19 1
    32   19   32 1
    33   19   20 2
    34   20   21 1
    35   21   22 1
    36   21   30 1
    37   21   23 1
    38   23   24 2
    39   23   31 1
    40   24   29 ar
    41   24   25 ar
    42   25   26 ar
    43   25   45 1
    44   26   27 ar
    45   26   46 1
    46   27   28 ar
    47   27   47 1
    48   28   29 ar
    49   28   48 1
    50   29   30 2
    51   30   49 1
    52   31   32 2
@<TRIPOS>MOLECULE
ZINC16689787
   52    56     0     0     0
SMALL
USER_CHARGES

@<TRIPOS>ATOM
      1 C1         -0.0167    1.3780    0.0096 C.ar      1 <0>        -0.1055
      2 C2          1.1706    2.0866    0.0021 C.ar      1 <0>        -0.0597
      3 C3          2.3773    1.4137   -0.0131 C.ar      1 <0>        -0.1370
      4 C4          2.3974    0.0291   -0.0207 C.ar      1 <0>         0.1412
      5 C5          1.2080   -0.6793   -0.0132 C.ar      1 <0>        -0.1741
      6 C6          0.0021   -0.0041    0.0020 C.ar      1 <0>        -0.1057
      7 C7          1.2281   -2.1862   -0.0220 C.3       1 <0>         0.2179
      8 H1          2.0265   -2.5427    0.6288 H         1 <0>         0.1691
      9 C8          1.4678   -2.6772   -1.4264 C.2       1 <0>        -0.3337
     10 C9          2.5095   -3.3602   -1.9153 C.2       1 <0>         0.4121
     11 N1          2.5500   -3.7247   -3.2390 N.pl3     1 <0>        -0.4079
     12 C10         1.4874   -3.3591   -4.0190 C.2       1 <0>         0.2637
     13 S1          0.4321   -2.5061   -2.8718 S.3       1 <0>         0.2267
     14 N2          1.6737   -3.7753   -5.2402 N.2       1 <0>        -0.4483
     15 C11         2.8459   -4.4209   -5.3139 C.2       1 <0>         0.3752
     16 N3          3.4140   -4.4164   -4.1273 N.2       1 <0>        -0.2739
     17 C12         3.4099   -5.0382   -6.5325 C.2       1 <0>         0.0105
     18 C13         2.8342   -5.0428   -7.7641 C.2       1 <0>        -0.1054
     19 C14         3.7128   -5.7366   -8.6202 C.2       1 <0>        -0.2193
     20 C15         4.7700   -6.1170   -7.8767 C.2       1 <0>         0.0135
     21 O1          4.5862   -5.6888   -6.6171 O.3       1 <0>        -0.1596
     22 O2          3.5394   -3.6969   -1.0927 O.3       1 <0>        -0.4345
     23 N4         -0.0620   -2.6959    0.4614 N.4       1 <0>        -0.3845
     24 C16        -0.2983   -2.2097    1.8261 C.3       1 <0>        -0.0187
     25 C17        -1.6768   -2.6706    2.3044 C.3       1 <0>        -0.1255
     26 C18        -1.7307   -4.2010    2.2896 C.3       1 <0>        -0.1248
     27 C19        -1.4096   -4.6997    0.8777 C.3       1 <0>        -0.1382
     28 C20        -0.0410   -4.1636    0.4523 C.3       1 <0>        -0.0056
     29 C21        -3.1105   -4.6605    2.6846 C.2       1 <0>         0.5213
     30 O3         -3.9677   -3.8452    2.9520 O.2       1 <0>        -0.5276
     31 N5         -3.3920   -5.9773    2.7408 N.am      1 <0>        -0.8493
     32 F1          3.5766   -0.6299   -0.0360 F         1 <0>        -0.1228
     33 H2         -0.9594    1.9048    0.0260 H         1 <0>         0.1473
     34 H3          1.1547    3.1665    0.0077 H         1 <0>         0.1491
     35 H4          3.3046    1.9675   -0.0193 H         1 <0>         0.1514
     36 H5         -0.9259   -0.5565    0.0083 H         1 <0>         0.1276
     37 H6          1.8865   -4.6009   -8.0341 H         1 <0>         0.1667
     38 H7          3.5663   -5.9273   -9.6731 H         1 <0>         0.1662
     39 H8          5.6252   -6.6707   -8.2350 H         1 <0>         0.2200
     40 H9          0.4683   -2.6076    2.4909 H         1 <0>         0.1381
     41 H10        -0.2564   -1.1205    1.8355 H         1 <0>         0.1444
     42 H11        -1.8495   -2.3101    3.3184 H         1 <0>         0.1254
     43 H12        -2.4442   -2.2730    1.6403 H         1 <0>         0.0995
     44 H13        -0.9980   -4.5984    2.9920 H         1 <0>         0.1199
     45 H14        -1.3914   -5.7896    0.8720 H         1 <0>         0.1202
     46 H15        -2.1715   -4.3442    0.1840 H         1 <0>         0.0987
     47 H16         0.1908   -4.5169   -0.5524 H         1 <0>         0.1328
     48 H17         0.7201   -4.5199    1.1464 H         1 <0>         0.1384
     49 H18        -2.7064   -6.6293    2.5269 H         1 <0>         0.4032
     50 H19        -4.2801   -6.2731    2.9951 H         1 <0>         0.4120
     51 H20         4.2477   -4.1887   -1.5303 H         1 <0>         0.4307
     52 H21        -0.8001   -2.3674   -0.1430 H         1 <0>         0.4188
@<TRIPOS>BOND
     1    1    6 ar
     2    1    2 ar
     3    1   33 1
     4    2    3 ar
     5    2   34 1
     6    3    4 ar
     7    3   35 1
     8    4    5 ar
     9    4   32 1
    10    5    6 ar
    11    5    7 1
    12    6   36 1
    13    7    8 1
    14    7    9 1
    15    7   23 1
    16    9   13 1
    17    9   10 2
    18   10   11 1
    19   10   22 1
    20   11   16 1
    21   11   12 1
    22   12   13 1
    23   12   14 2
    24   14   15 1
    25   15   16 2
    26   15   17 1
    27   17   21 1
    28   17   18 2
    29   18   19 1
    30   18   37 1
    31   19   20 2
    32   19   38 1
    33   20   21 1
    34   20   39 1
    35   22   51 1
    36   23   28 1
    37   23   24 1
    38   23   52 1
    39   24   25 1
    40   24   40 1
    41   24   41 1
    42   25   26 1
    43   25   42 1
    44   25   43 1
    45   26   27 1
    46   26   29 1
    47   26   44 1
    48   27   28 1
    49   27   45 1
    50   27   46 1
    51   28   47 1
    52   28   48 1
    53   29   30 2
    54   29   31 am
    55   31   49 1
    56   31   50 1
@<TRIPOS>MOLECULE
ZINC03670431
   58    60     0     0     0
SMALL
USER_CHARGES
6-bromo-3-(4-chlorophenyl)-N-(3-diethylaminopropyl)-4-hydroxy-2-oxo-1H-quinazoline-4-carboxamide
@<TRIPOS>ATOM
      1 C1         -1.6514    7.9559    8.0632 C.3       1 <0>        -0.1876
      2 C2         -0.2045    7.6105    7.7050 C.3       1 <0>        -0.0141
      3 C3         -0.0642    5.7877    9.2925 C.3       1 <0>        -0.0112
      4 C4          1.1810    6.2943   10.0230 C.3       1 <0>        -0.1881
      5 C5         -0.9447    5.3938    7.0716 C.3       1 <0>        -0.0077
      6 C6         -0.6696    5.6299    5.5852 C.3       1 <0>        -0.1649
      7 C7         -1.6650    4.8241    4.7481 C.3       1 <0>         0.1215
      8 N1         -1.4016    5.0502    3.3248 N.am      1 <0>        -0.7222
      9 C8         -2.1600    4.4385    2.3936 C.2       1 <0>         0.4938
     10 O1         -3.0606    3.7010    2.7340 O.2       1 <0>        -0.4989
     11 C9         -1.8890    4.6710    0.9295 C.3       1 <0>         0.3959
     12 C10        -0.5236    4.1060    0.6127 C.ar      1 <0>        -0.1762
     13 C11        -0.2302    2.7799    0.8325 C.ar      1 <0>        -0.0281
     14 C12         1.0343    2.2980    0.5352 C.ar      1 <0>        -0.1165
     15 C13         1.9924    3.1466    0.0090 C.ar      1 <0>        -0.0321
     16 C14         1.6975    4.4768   -0.2174 C.ar      1 <0>        -0.1461
     17 C15         0.4333    4.9656    0.0843 C.ar      1 <0>         0.2020
     18 N2          0.1159    6.3062   -0.1378 N.am      1 <0>        -0.6568
     19 C16        -1.0877    6.8251    0.1369 C.2       1 <0>         0.7122
     20 O2         -1.2754    8.0050   -0.0891 O.2       1 <0>        -0.5344
     21 N3         -2.0992    6.1018    0.6503 N.am      1 <0>        -0.5462
     22 C17        -3.3361    6.7014    0.9153 C.ar      1 <0>         0.1483
     23 C18        -4.3402    6.6776   -0.0435 C.ar      1 <0>        -0.0691
     24 C19        -5.5611    7.2661    0.2222 C.ar      1 <0>        -0.0998
     25 C20        -5.7807    7.8879    1.4388 C.ar      1 <0>        -0.0196
     26 C21        -4.7801    7.9172    2.3942 C.ar      1 <0>        -0.1062
     27 C22        -3.5590    7.3259    2.1353 C.ar      1 <0>        -0.0913
     28 Cl1        -7.3140    8.6330    1.7668 Cl        1 <0>        -0.0541
     29 Br1         1.4486    0.4785    0.8414 Br        1 <0>        -0.0245
     30 O3         -2.8567    3.9296    0.1838 O.3       1 <0>        -0.5316
     31 H1         -1.8083    9.0282    7.9472 H         1 <0>         0.1069
     32 H2         -2.3284    7.4158    7.4013 H         1 <0>         0.0810
     33 H3         -1.8481    7.6695    9.0963 H         1 <0>         0.0809
     34 H4          0.4727    8.1589    8.3597 H         1 <0>         0.1309
     35 H5         -0.0110    7.8869    6.6685 H         1 <0>         0.1271
     36 H6         -0.9537    6.2305    9.7406 H         1 <0>         0.1330
     37 H7         -0.1176    4.7022    9.3754 H         1 <0>         0.1298
     38 H8          2.0737    5.9562    9.4968 H         1 <0>         0.0794
     39 H9          1.1672    7.3838   10.0521 H         1 <0>         0.0802
     40 H10         1.1894    5.9037   11.0406 H         1 <0>         0.1069
     41 H11        -1.9599    5.7123    7.3083 H         1 <0>         0.1390
     42 H12        -0.8346    4.3332    7.2976 H         1 <0>         0.1350
     43 H13         0.3457    5.3114    5.3486 H         1 <0>         0.0958
     44 H14        -0.7796    6.6905    5.3593 H         1 <0>         0.0946
     45 H15        -2.6802    5.1426    4.9847 H         1 <0>         0.0828
     46 H16        -1.5549    3.7635    4.9740 H         1 <0>         0.0840
     47 H17        -0.6812    5.6400    3.0526 H         1 <0>         0.4024
     48 H18        -0.9809    2.1184    1.2391 H         1 <0>         0.1433
     49 H19         2.9759    2.7669   -0.2254 H         1 <0>         0.1496
     50 H20         2.4484    5.1352   -0.6286 H         1 <0>         0.1502
     51 H21         0.7981    6.8887   -0.5068 H         1 <0>         0.4345
     52 H22        -4.1678    6.1963   -0.9948 H         1 <0>         0.1405
     53 H23        -6.3437    7.2446   -0.5218 H         1 <0>         0.1452
     54 H24        -4.9540    8.4031    3.3429 H         1 <0>         0.1394
     55 H25        -2.7784    7.3491    2.8813 H         1 <0>         0.1253
     56 H26        -2.8699    2.9843    0.3871 H         1 <0>         0.4029
     57 N4          0.0375    6.1613    7.8660 N.4       1 <0>        -0.3953
     58 H27         0.9826    5.9416    7.5303 H         1 <0>         0.4280
@<TRIPOS>BOND
     1    1    2 1
     2    1   31 1
     3    1   32 1
     4    1   33 1
     5    2   34 1
     6    2   35 1
     7    2   57 1
     8    3    4 1
     9    3   36 1
    10    3   37 1
    11    3   57 1
    12    4   38 1
    13    4   39 1
    14    4   40 1
    15    5    6 1
    16    5   41 1
    17    5   42 1
    18    5   57 1
    19    6    7 1
    20    6   43 1
    21    6   44 1
    22    7    8 1
    23    7   45 1
    24    7   46 1
    25    8    9 am
    26    8   47 1
    27    9   10 2
    28    9   11 1
    29   11   21 1
    30   11   12 1
    31   11   30 1
    32   12   17 ar
    33   12   13 ar
    34   13   14 ar
    35   13   48 1
    36   14   15 ar
    37   14   29 1
    38   15   16 ar
    39   15   49 1
    40   16   17 ar
    41   16   50 1
    42   17   18 1
    43   18   19 am
    44   18   51 1
    45   19   20 2
    46   19   21 am
    47   21   22 1
    48   22   27 ar
    49   22   23 ar
    50   23   24 ar
    51   23   52 1
    52   24   25 ar
    53   24   53 1
    54   25   26 ar
    55   25   28 1
    56   26   27 ar
    57   26   54 1
    58   27   55 1
    59   30   56 1
    60   57   58 1
@<TRIPOS>MOLECULE
ZINC02927068
   54    57     0     0     0
SMALL
USER_CHARGES
N-(3-chloro-2-methyl-phenyl)-2-[[4-imino-5-(3-methoxyphenyl)-3-methyl-1H-pyrazolo[5,4-d]pyrimidin-6-yl]sulfanyl]acetamide
@<TRIPOS>ATOM
      1 C1         -7.0766    4.0824    9.3793 C.3       1 <0>        -0.1159
      2 C2         -8.1849    4.7037    8.5687 C.ar      1 <0>        -0.1039
      3 C3         -8.0780    4.7768    7.1860 C.ar      1 <0>         0.1565
      4 C4         -9.1037    5.3447    6.4421 C.ar      1 <0>        -0.1236
      5 C5        -10.2250    5.8401    7.0790 C.ar      1 <0>        -0.0905
      6 C6        -10.3270    5.7715    8.4559 C.ar      1 <0>        -0.1185
      7 C7         -9.3063    5.2065    9.2009 C.ar      1 <0>        -0.0184
      8 Cl1        -9.4384    5.1224   10.9298 Cl        1 <0>        -0.0563
      9 N1         -6.9414    4.2739    6.5433 N.am      1 <0>        -0.6683
     10 C8         -7.0156    3.8731    5.2587 C.2       1 <0>         0.5346
     11 O1         -8.0869    3.8538    4.6903 O.2       1 <0>        -0.5061
     12 C9         -5.7675    3.4488    4.5284 C.3       1 <0>        -0.1698
     13 S1         -6.1923    2.9703    2.8352 S.3       1 <0>         0.1614
     14 C10        -4.5959    2.5335    2.2311 C.2       1 <0>         0.3779
     15 N2         -3.5695    2.6321    3.0402 N.2       1 <0>        -0.4903
     16 C11        -2.3208    2.3246    2.6576 C.2       1 <0>         0.3320
     17 C12        -2.0866    1.8766    1.3504 C.2       1 <0>        -0.3440
     18 C13        -0.7088    1.6235    1.2339 C.2       1 <0>         0.1923
     19 N3         -0.1406    1.9090    2.3738 N.pl3     1 <0>        -0.3814
     20 N4         -1.1129    2.3419    3.2840 N.2       1 <0>        -0.2540
     21 H1          0.9467    1.7905    2.4913 H         1 <0>         0.5018
     22 C14        -0.0027    1.1395   -0.0063 C.3       1 <0>        -0.1371
     23 C15        -3.2309    1.7687    0.4357 C.cat     1 <0>         0.6078
     24 N5         -3.0781    1.3704   -0.8035 N.pl3     1 <0>        -0.7649
     25 N6         -4.4798    2.1014    0.9377 N.pl3     1 <0>        -0.4527
     26 C16        -5.6139    2.0115    0.1209 C.ar      1 <0>         0.0755
     27 C17        -6.0401    0.7735   -0.3433 C.ar      1 <0>        -0.1491
     28 C18        -7.1612    0.6843   -1.1454 C.ar      1 <0>        -0.0516
     29 C19        -7.8559    1.8267   -1.4959 C.ar      1 <0>        -0.1719
     30 C20        -7.4316    3.0664   -1.0394 C.ar      1 <0>         0.1607
     31 C21        -6.3098    3.1593   -0.2302 C.ar      1 <0>        -0.1231
     32 O2         -8.1152    4.1888   -1.3854 O.3       1 <0>        -0.3031
     33 C22        -9.2614    4.0184   -2.2216 C.3       1 <0>         0.0161
     34 H2         -6.2759    3.7427    8.7059 H         1 <0>         0.0614
     35 H3         -7.4712    3.2237    9.9423 H         1 <0>         0.0822
     36 H4         -6.6739    4.8274   10.0813 H         1 <0>         0.0816
     37 H5         -9.0248    5.3995    5.3664 H         1 <0>         0.1497
     38 H6        -11.0229    6.2818    6.5005 H         1 <0>         0.1379
     39 H7        -11.2045    6.1599    8.9514 H         1 <0>         0.1374
     40 H8         -5.9873    4.2056    7.0865 H         1 <0>         0.4416
     41 H9         -5.0541    4.2857    4.5049 H         1 <0>         0.1443
     42 H10        -5.3117    2.5930    5.0479 H         1 <0>         0.1428
     43 H11         1.0720    1.0319    0.2020 H         1 <0>         0.1083
     44 H12        -0.1478    1.8673   -0.8184 H         1 <0>         0.1082
     45 H13        -0.4171    0.1662   -0.3079 H         1 <0>         0.1078
     46 H14        -3.9506    1.2977   -1.4694 H         1 <0>         0.4636
     47 H15        -5.4966   -0.1201   -0.0743 H         1 <0>         0.1394
     48 H16        -7.4929   -0.2793   -1.5026 H         1 <0>         0.1510
     49 H17        -8.7298    1.7542   -2.1262 H         1 <0>         0.1499
     50 H18        -5.9783    4.1233    0.1264 H         1 <0>         0.1508
     51 H19        -9.7172    4.9990   -2.4234 H         1 <0>         0.1150
     52 H20        -9.9925    3.3717   -1.7142 H         1 <0>         0.0670
     53 H21        -8.9570    3.5533   -3.1708 H         1 <0>         0.0649
     54 H22        -2.0773    1.1088   -1.1776 H         1 <0>         0.4729
@<TRIPOS>BOND
     1    1    2 1
     2    1   34 1
     3    1   35 1
     4    1   36 1
     5    2    7 ar
     6    2    3 ar
     7    3    4 ar
     8    3    9 1
     9    4    5 ar
    10    4   37 1
    11    5    6 ar
    12    5   38 1
    13    6    7 ar
    14    6   39 1
    15    7    8 1
    16    9   10 am
    17    9   40 1
    18   10   11 2
    19   10   12 1
    20   12   13 1
    21   12   41 1
    22   12   42 1
    23   13   14 1
    24   14   25 1
    25   14   15 2
    26   15   16 1
    27   16   17 1
    28   16   20 2
    29   17   23 1
    30   17   18 2
    31   18   22 1
    32   18   19 1
    33   19   21 1
    34   19   20 1
    35   22   43 1
    36   22   44 1
    37   22   45 1
    38   23   24 2
    39   23   25 1
    40   24   46 1
    41   24   54 1
    42   25   26 1
    43   26   31 ar
    44   26   27 ar
    45   27   28 ar
    46   27   47 1
    47   28   29 ar
    48   28   48 1
    49   29   30 ar
    50   29   49 1
    51   30   31 ar
    52   30   32 1
    53   31   50 1
    54   32   33 1
    55   33   51 1
    56   33   52 1
    57   33   53 1
@<TRIPOS>MOLECULE
ZINC32934517
   51    53     0     0     0
SMALL
USER_CHARGES
2-[methyl-[2-oxo-2-[2-(trifluoromethyl)anilino]ethyl]amino]-N-[2-(trifluoromethyl)-1H-benzimidazol-5-yl]acetamide
@<TRIPOS>ATOM
      1 C1         -3.6632    5.2972    9.4075 C.3       1 <0>        -0.0647
      2 N1         -4.7371    4.3062    9.2573 N.4       1 <0>        -0.3774
      3 C2         -4.2292    3.0668    8.6542 C.3       1 <0>        -0.0266
      4 C3         -3.7924    3.3395    7.2379 C.2       1 <0>         0.5046
      5 O1         -3.8943    4.4565    6.7763 O.2       1 <0>        -0.5129
      6 N2         -3.2886    2.3422    6.4842 N.am      1 <0>        -0.6548
      7 C4         -2.7906    2.6151    5.2034 C.ar      1 <0>         0.1219
      8 C5         -3.3983    3.5924    4.4174 C.ar      1 <0>        -0.0867
      9 C6         -2.9188    3.8701    3.1564 C.ar      1 <0>        -0.0881
     10 C7         -1.8232    3.1743    2.6633 C.ar      1 <0>         0.0614
     11 C8         -1.2044    2.1878    3.4492 C.ar      1 <0>         0.0564
     12 C9         -1.6994    1.9140    4.7269 C.ar      1 <0>        -0.0645
     13 N3         -0.1803    1.6815    2.7152 N.2       1 <0>        -0.4303
     14 C10        -0.1270    2.2846    1.5635 C.2       1 <0>         0.2156
     15 N4         -1.1179    3.2119    1.4750 N.pl3     1 <0>        -0.5800
     16 H1         -1.4129    3.9152    0.6823 H         1 <0>         0.4684
     17 C11         0.8818    1.9935    0.4824 C.3       1 <0>         0.5596
     18 F1          1.5215    0.7798    0.7561 F         1 <0>        -0.1431
     19 F2          1.8299    3.0213    0.4404 F         1 <0>        -0.1584
     20 F3          0.2304    1.9091   -0.7528 F         1 <0>        -0.1619
     21 C12        -5.3883    4.0363   10.5461 C.3       1 <0>        -0.0277
     22 C13        -6.1067    5.2752   11.0153 C.2       1 <0>         0.5081
     23 O2         -6.0790    6.2838   10.3422 O.2       1 <0>        -0.5029
     24 N5         -6.7800    5.2624   12.1827 N.am      1 <0>        -0.6649
     25 C14        -7.5423    6.3724   12.5629 C.ar      1 <0>         0.1841
     26 C15        -8.0373    7.2402   11.5980 C.ar      1 <0>        -0.1305
     27 C16        -8.7934    8.3321   11.9761 C.ar      1 <0>        -0.0625
     28 C17        -9.0495    8.5676   13.3147 C.ar      1 <0>        -0.1225
     29 C18        -8.5538    7.7086   14.2780 C.ar      1 <0>        -0.0481
     30 C19        -7.8008    6.6119   13.9060 C.ar      1 <0>        -0.2075
     31 C20        -7.2601    5.6766   14.9566 C.3       1 <0>         0.5084
     32 F4         -7.6500    6.1233   16.2238 F         1 <0>        -0.1642
     33 F5         -7.7648    4.3900   14.7400 F         1 <0>        -0.1785
     34 F6         -5.8634    5.6484   14.8816 F         1 <0>        -0.1760
     35 H2         -4.0703    6.2132    9.8604 H         1 <0>         0.1400
     36 H3         -3.2410    5.5330    8.4195 H         1 <0>         0.1432
     37 H4         -2.8741    4.8874   10.0551 H         1 <0>         0.1164
     38 H5         -3.3723    2.6994    9.2379 H         1 <0>         0.1651
     39 H6         -5.0246    2.3070    8.6527 H         1 <0>         0.1664
     40 H7         -3.2684    1.3140    6.8747 H         1 <0>         0.4494
     41 H8         -4.2502    4.1354    4.7993 H         1 <0>         0.1503
     42 H9         -3.3941    4.6286    2.5522 H         1 <0>         0.1393
     43 H10        -1.2309    1.1579    5.3394 H         1 <0>         0.1430
     44 H11        -6.1115    3.2161   10.4268 H         1 <0>         0.1692
     45 H12        -4.6284    3.7500   11.2881 H         1 <0>         0.1660
     46 H13        -6.7303    4.3793   12.8367 H         1 <0>         0.4465
     47 H14        -7.8339    7.0593   10.5528 H         1 <0>         0.1546
     48 H15        -9.1814    9.0053   11.2261 H         1 <0>         0.1428
     49 H16        -9.6377    9.4245   13.6081 H         1 <0>         0.1444
     50 H17        -8.7552    7.8954   15.3225 H         1 <0>         0.1493
     51 H18        -5.4931    4.7273    8.5782 H         1 <0>         0.4604
@<TRIPOS>BOND
     1    1    2 1
     2    1   35 1
     3    1   36 1
     4    1   37 1
     5    2    3 1
     6    2   21 1
     7    2   51 1
     8    3    4 1
     9    3   38 1
    10    3   39 1
    11    4    5 2
    12    4    6 am
    13    6    7 1
    14    6   40 1
    15    7   12 ar
    16    7    8 ar
    17    8    9 ar
    18    8   41 1
    19    9   10 ar
    20    9   42 1
    21   10   15 1
    22   10   11 ar
    23   11   12 ar
    24   11   13 1
    25   12   43 1
    26   13   14 2
    27   14   15 1
    28   14   17 1
    29   15   16 1
    30   17   18 1
    31   17   19 1
    32   17   20 1
    33   21   22 1
    34   21   44 1
    35   21   45 1
    36   22   23 2
    37   22   24 am
    38   24   25 1
    39   24   46 1
    40   25   30 ar
    41   25   26 ar
    42   26   27 ar
    43   26   47 1
    44   27   28 ar
    45   27   48 1
    46   28   29 ar
    47   28   49 1
    48   29   30 ar
    49   29   50 1
    50   30   31 1
    51   31   32 1
    52   31   33 1
    53   31   34 1
@<TRIPOS>MOLECULE
ZINC39656084
   80    84     0     0     0
SMALL
USER_CHARGES

@<TRIPOS>ATOM
      1 C1          2.8140   -3.8612    0.3880 C.3       1 <0>        -0.1104
      2 C2          3.2476   -2.4573    0.7229 C.ar      1 <0>        -0.1078
      3 C3          2.7209   -1.8218    1.8387 C.ar      1 <0>        -0.0969
      4 C4          3.1035   -0.5383    2.1624 C.ar      1 <0>        -0.1203
      5 C5          4.0270    0.1292    1.3648 C.ar      1 <0>         0.0909
      6 N1          4.5963    1.3817    1.4188 N.pl3     1 <0>        -0.5918
      7 C6          5.4613    1.5452    0.3713 C.2       1 <0>         0.0708
      8 C7          5.4843    0.4337   -0.3810 C.2       1 <0>        -0.1865
      9 C8          4.5583   -0.5197    0.2350 C.ar      1 <0>        -0.0952
     10 C9          4.1604   -1.8222   -0.0715 C.ar      1 <0>        -0.0786
     11 C10         6.3064    0.2094   -1.6239 C.3       1 <0>        -0.0475
     12 C11         5.4651    0.5397   -2.8584 C.3       1 <0>         0.1205
     13 N2          6.2643    0.3216   -4.0667 N.am      1 <0>        -0.7279
     14 C12         5.7261    0.5500   -5.2810 C.2       1 <0>         0.5182
     15 O1          4.5801    0.9360   -5.3735 O.2       1 <0>        -0.5195
     16 C13         6.5482    0.3257   -6.5239 C.3       1 <0>        -0.1138
     17 H1          7.6062    0.4788   -6.3110 H         1 <0>         0.1112
     18 C14         6.0843    1.2720   -7.6538 C.3       1 <0>         0.1089
     19 N3          6.1919    0.4608   -8.8893 N.am      1 <0>        -0.6232
     20 C15         5.7285   -0.8885   -8.4859 C.3       1 <0>         0.1080
     21 C16         6.3123   -1.0912   -7.0735 C.3       1 <0>        -0.0711
     22 C17         5.3158   -1.8401   -6.1939 C.3       1 <0>        -0.1467
     23 C18         5.1420   -3.2652   -6.7265 C.3       1 <0>        -0.0078
     24 N4          6.4393   -3.9519   -6.7249 N.4       1 <0>        -0.5043
     25 C19         7.3634   -3.2785   -7.6454 C.3       1 <0>        -0.0112
     26 C20         7.6312   -1.8540   -7.1516 C.3       1 <0>        -0.1337
     27 C21         6.6156    0.8595  -10.1050 C.2       1 <0>         0.5336
     28 O2          6.6462    0.0703  -11.0255 O.2       1 <0>        -0.5103
     29 C22         7.0515    2.2859  -10.3207 C.3       1 <0>         0.1089
     30 H2          7.5741    2.6640   -9.4420 H         1 <0>         0.0927
     31 C23         5.8413    3.1792  -10.6606 C.3       1 <0>        -0.1167
     32 C24         6.1548    3.6999  -12.0451 C.2       1 <0>         0.0437
     33 N5          7.2704    3.2360  -12.4358 N.2       1 <0>        -0.2114
     34 N6          7.9022    2.3938  -11.5175 N.pl3     1 <0>        -0.5199
     35 C25         9.1932    1.7287  -11.7105 C.3       1 <0>         0.2294
     36 C26         9.4583    0.7804  -10.5394 C.3       1 <0>        -0.1618
     37 C27         9.1661    0.9316  -13.0161 C.3       1 <0>        -0.1551
     38 C28        10.3033    2.7794  -11.7773 C.3       1 <0>        -0.1598
     39 C29         5.2755    4.6291  -12.8416 C.3       1 <0>        -0.0742
     40 H3          1.9435   -3.8261   -0.2670 H         1 <0>         0.0674
     41 H4          3.6276   -4.3822   -0.1166 H         1 <0>         0.0608
     42 H5          2.5572   -4.3907    1.3055 H         1 <0>         0.0672
     43 H6          2.0037   -2.3384    2.4592 H         1 <0>         0.1276
     44 H7          2.6874   -0.0520    3.0324 H         1 <0>         0.1232
     45 H8          6.0398    2.4365    0.1783 H         1 <0>         0.1707
     46 H9          4.4112    2.0491    2.0980 H         1 <0>         0.4198
     47 H10         4.5693   -2.3245   -0.9357 H         1 <0>         0.1142
     48 H11         7.1849    0.8542   -1.5998 H         1 <0>         0.0768
     49 H12         6.6220   -0.8330   -1.6676 H         1 <0>         0.0730
     50 H13         4.5866   -0.1052   -2.8826 H         1 <0>         0.0725
     51 H14         5.1495    1.5821   -2.8148 H         1 <0>         0.0734
     52 H15         7.1809    0.0128   -3.9927 H         1 <0>         0.3999
     53 H16         5.0519    1.5811   -7.4908 H         1 <0>         0.1024
     54 H17         6.7377    2.1425   -7.7127 H         1 <0>         0.0916
     55 H18         4.6395   -0.9239   -8.4571 H         1 <0>         0.0843
     56 H19         6.1167   -1.6440   -9.1690 H         1 <0>         0.0877
     57 H20         5.6897   -1.8771   -5.1707 H         1 <0>         0.0975
     58 H21         4.3553   -1.3251   -6.2124 H         1 <0>         0.1266
     59 H22         4.4431   -3.8079   -6.0901 H         1 <0>         0.1397
     60 H23         4.7523   -3.2276   -7.7438 H         1 <0>         0.1329
     61 H24         6.8251   -3.9371   -5.7926 H         1 <0>         0.4277
     62 H25         8.3020   -3.8311   -7.6864 H         1 <0>         0.1397
     63 H26         6.9209   -3.2406   -8.6408 H         1 <0>         0.1334
     64 H27         8.3032   -1.3488   -7.8453 H         1 <0>         0.1169
     65 H28         8.0889   -1.8916   -6.1631 H         1 <0>         0.0970
     66 H29         4.9231    2.5920  -10.6713 H         1 <0>         0.0919
     67 H30         5.7620    4.0027   -9.9508 H         1 <0>         0.1038
     68 H31         8.7285   -0.0291  -10.5550 H         1 <0>         0.0692
     69 H32        10.4626    0.3659  -10.6277 H         1 <0>         0.0761
     70 H33         9.3728    1.3287   -9.6013 H         1 <0>         0.0531
     71 H34         8.9772    1.6071  -13.8504 H         1 <0>         0.0648
     72 H35        10.1266    0.4366  -13.1597 H         1 <0>         0.0613
     73 H36         8.3752    0.1830  -12.9685 H         1 <0>         0.0639
     74 H37        10.3226    3.3472  -10.8471 H         1 <0>         0.0542
     75 H38        11.2638    2.2844  -11.9209 H         1 <0>         0.0664
     76 H39        10.1144    3.4549  -12.6116 H         1 <0>         0.0664
     77 H40         5.5442    5.6621  -12.6205 H         1 <0>         0.0807
     78 H41         5.4140    4.4374  -13.9056 H         1 <0>         0.0786
     79 H42         4.2323    4.4600  -12.5747 H         1 <0>         0.0779
     80 H43         6.3122   -4.9089   -7.0183 H         1 <0>         0.4344
@<TRIPOS>BOND
     1    1   40 1
     2    1   41 1
     3    1   42 1
     4    1    2 1
     5    2    3 ar
     6    2   10 ar
     7    3    4 ar
     8    3   43 1
     9    4    5 ar
    10    4   44 1
    11    5    6 1
    12    5    9 ar
    13    6   46 1
    14    6    7 1
    15    7    8 2
    16    7   45 1
    17    8    9 1
    18    8   11 1
    19    9   10 ar
    20   10   47 1
    21   11   12 1
    22   11   48 1
    23   11   49 1
    24   12   13 1
    25   12   50 1
    26   12   51 1
    27   13   14 am
    28   13   52 1
    29   14   15 2
    30   14   16 1
    31   16   17 1
    32   16   21 1
    33   16   18 1
    34   18   19 1
    35   18   53 1
    36   18   54 1
    37   19   20 1
    38   19   27 am
    39   20   21 1
    40   20   55 1
    41   20   56 1
    42   21   26 1
    43   21   22 1
    44   22   23 1
    45   22   57 1
    46   22   58 1
    47   23   24 1
    48   23   59 1
    49   23   60 1
    50   24   25 1
    51   24   61 1
    52   24   80 1
    53   25   26 1
    54   25   62 1
    55   25   63 1
    56   26   64 1
    57   26   65 1
    58   27   28 2
    59   27   29 1
    60   29   30 1
    61   29   34 1
    62   29   31 1
    63   31   32 1
    64   31   66 1
    65   31   67 1
    66   32   33 2
    67   32   39 1
    68   33   34 1
    69   34   35 1
    70   35   36 1
    71   35   37 1
    72   35   38 1
    73   36   68 1
    74   36   69 1
    75   36   70 1
    76   37   71 1
    77   37   72 1
    78   37   73 1
    79   38   74 1
    80   38   75 1
    81   38   76 1
    82   39   77 1
    83   39   78 1
    84   39   79 1
@<TRIPOS>MOLECULE
ZINC16556843
   58    59     0     0     0
SMALL
USER_CHARGES

@<TRIPOS>ATOM
      1 C1         -0.4314    1.3172   -0.3156 C.3       1 <0>        -0.1839
      2 C2         -0.4837   -0.1935   -0.5521 C.3       1 <0>        -0.0279
      3 N1          0.1086   -0.5052   -1.8598 N.4       1 <0>        -0.3556
      4 C3         -0.0545   -1.9375   -2.1423 C.3       1 <0>        -0.0437
      5 C4         -1.5203   -2.2582   -2.2820 C.2       1 <0>         0.5079
      6 O1         -2.3477   -1.3800   -2.1583 O.2       1 <0>        -0.5121
      7 N2         -1.9118   -3.5209   -2.5444 N.am      1 <0>        -0.6402
      8 C5         -3.2756   -3.8386   -2.5780 C.ar      1 <0>         0.0984
      9 C6         -4.1912   -2.9174   -3.0694 C.ar      1 <0>        -0.0899
     10 C7         -5.5353   -3.2305   -3.1026 C.ar      1 <0>        -0.1298
     11 C8         -5.9718   -4.4667   -2.6445 C.ar      1 <0>         0.1540
     12 C9         -5.0561   -5.3879   -2.1531 C.ar      1 <0>        -0.1029
     13 C10        -3.7115   -5.0770   -2.1252 C.ar      1 <0>        -0.1070
     14 N3         -7.3356   -4.7842   -2.6778 N.am      1 <0>        -0.6783
     15 C11        -7.8726   -5.5520   -1.7089 C.2       1 <0>         0.5132
     16 O2         -7.1965   -5.8942   -0.7618 O.2       1 <0>        -0.5233
     17 C12        -9.3130   -5.9851   -1.8023 C.3       1 <0>        -0.1740
     18 C13         1.5386   -0.1692   -1.8422 C.3       1 <0>         0.0011
     19 H1          1.6651    0.8641   -1.5193 H         1 <0>         0.1770
     20 C14         2.2692   -1.0998   -0.8720 C.3       1 <0>        -0.1871
     21 C15         2.1110   -0.3367   -3.2261 C.2       1 <0>         0.5071
     22 O3          1.3873   -0.6490   -4.1480 O.2       1 <0>        -0.5041
     23 N4          3.4271   -0.1395   -3.4394 N.am      1 <0>        -0.6441
     24 C16         3.9408   -0.1933   -4.7399 C.ar      1 <0>         0.1534
     25 C17         3.1781    0.2590   -5.8086 C.ar      1 <0>        -0.1165
     26 C18         3.6881    0.2045   -7.0910 C.ar      1 <0>        -0.0478
     27 C19         4.9567   -0.2998   -7.3113 C.ar      1 <0>        -0.1797
     28 C20         5.7185   -0.7514   -6.2493 C.ar      1 <0>        -0.0464
     29 C21         5.2167   -0.6939   -4.9638 C.ar      1 <0>        -0.1316
     30 C22         5.5100   -0.3578   -8.7119 C.3       1 <0>         0.5072
     31 F1          6.1877    0.8328   -8.9952 F         1 <0>        -0.1717
     32 F2          6.3957   -1.4355   -8.8191 F         1 <0>        -0.1732
     33 F3          4.4602   -0.5247   -9.6214 F         1 <0>        -0.1736
     34 H2          0.6078    1.6375   -0.2406 H         1 <0>         0.0770
     35 H3         -0.9112    1.8321   -1.1479 H         1 <0>         0.0834
     36 H4         -0.9536    1.5583    0.6104 H         1 <0>         0.1113
     37 H5          0.0766   -0.7036    0.2314 H         1 <0>         0.1318
     38 H6         -1.5209   -0.5284   -0.5339 H         1 <0>         0.1543
     39 H7          0.4618   -2.1860   -3.0696 H         1 <0>         0.1707
     40 H8          0.3685   -2.5198   -1.3237 H         1 <0>         0.1631
     41 H9         -1.2491   -4.2097   -2.7099 H         1 <0>         0.4194
     42 H10        -3.8518   -1.9559   -3.4254 H         1 <0>         0.1419
     43 H11        -6.2474   -2.5139   -3.4845 H         1 <0>         0.1350
     44 H12        -5.3956   -6.3491   -1.7965 H         1 <0>         0.1436
     45 H13        -2.9988   -5.7952   -1.7475 H         1 <0>         0.1337
     46 H14        -7.8937   -4.4515   -3.3981 H         1 <0>         0.4159
     47 H15        -9.3732   -6.9342   -2.3350 H         1 <0>         0.1022
     48 H16        -9.7221   -6.1050   -0.7991 H         1 <0>         0.1009
     49 H17        -9.8855   -5.2296   -2.3403 H         1 <0>         0.0852
     50 H18         3.3302   -0.8505   -0.8590 H         1 <0>         0.1139
     51 H19         1.8551   -0.9787    0.1290 H         1 <0>         0.1046
     52 H20         2.1426   -2.1331   -1.1950 H         1 <0>         0.0925
     53 H21         4.0181    0.0398   -2.6915 H         1 <0>         0.4232
     54 H22         2.1872    0.6526   -5.6372 H         1 <0>         0.1442
     55 H23         3.0953    0.5557   -7.9226 H         1 <0>         0.1465
     56 H24         6.7088   -1.1451   -6.4246 H         1 <0>         0.1490
     57 H25         5.8141   -1.0420   -4.1342 H         1 <0>         0.1442
     58 H26        -0.3547    0.0338   -2.5759 H         1 <0>         0.4375
@<TRIPOS>BOND
     1    1    2 1
     2    1   34 1
     3    1   35 1
     4    1   36 1
     5    2    3 1
     6    2   37 1
     7    2   38 1
     8    3    4 1
     9    3   18 1
    10    3   58 1
    11    4    5 1
    12    4   39 1
    13    4   40 1
    14    5    6 2
    15    5    7 am
    16    7    8 1
    17    7   41 1
    18    8   13 ar
    19    8    9 ar
    20    9   10 ar
    21    9   42 1
    22   10   11 ar
    23   10   43 1
    24   11   12 ar
    25   11   14 1
    26   12   13 ar
    27   12   44 1
    28   13   45 1
    29   14   15 am
    30   14   46 1
    31   15   16 2
    32   15   17 1
    33   17   47 1
    34   17   48 1
    35   17   49 1
    36   18   19 1
    37   18   20 1
    38   18   21 1
    39   20   50 1
    40   20   51 1
    41   20   52 1
    42   21   22 2
    43   21   23 am
    44   23   24 1
    45   23   53 1
    46   24   29 ar
    47   24   25 ar
    48   25   26 ar
    49   25   54 1
    50   26   27 ar
    51   26   55 1
    52   27   28 ar
    53   27   30 1
    54   28   29 ar
    55   28   56 1
    56   29   57 1
    57   30   31 1
    58   30   32 1
    59   30   33 1
@<TRIPOS>MOLECULE
ZINC09767761
   55    58     0     0     0
SMALL
USER_CHARGES
N-[2-[[3-chloro-5-(trifluoromethyl)-2-pyridyl]amino]ethyl]-3-(oxoBLAHyl)-propanamide
@<TRIPOS>ATOM
      1 C1         -3.7243   17.4999   -7.2405 C.ar      1 <0>         0.0954
      2 C2         -3.5528   17.8684   -5.9124 C.ar      1 <0>        -0.2303
      3 C3         -3.2770   16.8973   -4.9714 C.ar      1 <0>         0.2229
      4 C4         -3.3314   15.2358   -6.5725 C.ar      1 <0>         0.4816
      5 C5         -3.6058   16.1624   -7.5751 C.ar      1 <0>        -0.1320
      6 Cl1        -3.8031   15.6460   -9.2207 Cl        1 <0>         0.0413
      7 N1         -3.2151   13.8877   -6.8931 N.pl3     1 <0>        -0.6726
      8 C6         -2.9206   12.9082   -5.8442 C.3       1 <0>         0.0656
      9 C7         -2.8462   11.5092   -6.4592 C.3       1 <0>         0.1091
     10 N2         -2.5517   10.5297   -5.4104 N.am      1 <0>        -0.7350
     11 C8         -2.4389    9.2231   -5.7210 C.2       1 <0>         0.5202
     12 O1         -2.5813    8.8581   -6.8688 O.2       1 <0>        -0.5254
     13 C9         -2.1360    8.2155   -4.6421 C.3       1 <0>        -0.1226
     14 C10        -2.0616    6.8165   -5.2571 C.3       1 <0>        -0.0638
     15 C11        -1.7586    5.8089   -4.1782 C.2       1 <0>         0.3969
     16 N3         -1.6514    4.5036   -4.5244 N.am      1 <0>        -0.6346
     17 H1         -1.7733    4.2608   -5.4556 H         1 <0>         0.4202
     18 C12        -1.3817    3.5217   -3.6316 C.2       1 <0>         0.5616
     19 O2         -1.2880    2.3523   -3.9622 O.2       1 <0>        -0.5043
     20 C13        -1.2131    3.9467   -2.2707 C.2       1 <0>        -0.2481
     21 C14        -0.9206    3.1036   -1.1256 C.2       1 <0>        -0.0510
     22 C15        -0.8035    3.7251    0.0715 C.2       1 <0>        -0.1673
     23 S1         -1.0738    5.4460   -0.2701 S.3       1 <0>         0.1523
     24 C16        -1.3434    5.3288   -2.0101 C.2       1 <0>         0.0837
     25 N4         -1.6099    6.2370   -2.9438 N.2       1 <0>        -0.4687
     26 C17        -0.5097    3.0932    1.3970 C.3       1 <0>        -0.0391
     27 C18        -0.7263    1.5781    1.2705 C.3       1 <0>        -0.1156
     28 C19        -0.0127    1.0858    0.0080 C.3       1 <0>        -0.1237
     29 C20        -0.7489    1.5906   -1.2331 C.3       1 <0>        -0.0607
     30 C21        -3.6673   19.3142   -5.5029 C.3       1 <0>         0.5308
     31 F1         -3.4559   19.4266   -4.1246 F         1 <0>        -0.1628
     32 F2         -2.7074   20.0694   -6.1851 F         1 <0>        -0.1544
     33 F3         -4.9448   19.7887   -5.8190 F         1 <0>        -0.1544
     34 H2         -3.9409   18.2410   -7.9957 H         1 <0>         0.1960
     35 H3         -3.1434   17.1798   -3.9376 H         1 <0>         0.2192
     36 H4         -3.3290   13.5958   -7.8111 H         1 <0>         0.4428
     37 H5         -3.7091   12.9329   -5.0921 H         1 <0>         0.1021
     38 H6         -1.9659   13.1512   -5.3778 H         1 <0>         0.1021
     39 H7         -2.0576   11.4844   -7.2113 H         1 <0>         0.0887
     40 H8         -3.8009   11.2661   -6.9256 H         1 <0>         0.0887
     41 H9         -2.4378   10.8215   -4.4924 H         1 <0>         0.4072
     42 H10        -2.9245    8.2403   -3.8900 H         1 <0>         0.1131
     43 H11        -1.1813    8.4586   -4.1757 H         1 <0>         0.1130
     44 H12        -1.2730    6.7917   -6.0092 H         1 <0>         0.1139
     45 H13        -3.0163    6.5734   -5.7235 H         1 <0>         0.1139
     46 H14         0.5240    3.2948    1.6779 H         1 <0>         0.0871
     47 H15        -1.1809    3.4998    2.1534 H         1 <0>         0.0848
     48 H16        -1.7925    1.3646    1.1949 H         1 <0>         0.0700
     49 H17        -0.3113    1.0761    2.1445 H         1 <0>         0.0780
     50 H18         0.0021   -0.0041    0.0020 H         1 <0>         0.0739
     51 H19         1.0103    1.4619    0.0003 H         1 <0>         0.0665
     52 H20        -0.1684    1.3516   -2.1241 H         1 <0>         0.0862
     53 H21        -1.7272    1.1142   -1.2961 H         1 <0>         0.0801
     54 N5         -3.1590   15.5738   -5.2624 N.ar      1 <0>        -0.5236
     55 H22        -2.9531   14.8730   -4.5408 H         1 <0>         0.4809
@<TRIPOS>BOND
     1    1    5 ar
     2    1    2 ar
     3    1   34 1
     4    2    3 ar
     5    2   30 1
     6    3   35 1
     7    3   54 ar
     8    4    5 ar
     9    4    7 1
    10    4   54 ar
    11    5    6 1
    12    7    8 1
    13    7   36 1
    14    8    9 1
    15    8   37 1
    16    8   38 1
    17    9   10 1
    18    9   39 1
    19    9   40 1
    20   10   11 am
    21   10   41 1
    22   11   12 2
    23   11   13 1
    24   13   14 1
    25   13   42 1
    26   13   43 1
    27   14   15 1
    28   14   44 1
    29   14   45 1
    30   15   25 2
    31   15   16 1
    32   16   17 1
    33   16   18 am
    34   18   19 2
    35   18   20 1
    36   20   24 2
    37   20   21 1
    38   21   29 1
    39   21   22 2
    40   22   23 1
    41   22   26 1
    42   23   24 1
    43   24   25 1
    44   26   27 1
    45   26   46 1
    46   26   47 1
    47   27   28 1
    48   27   48 1
    49   27   49 1
    50   28   29 1
    51   28   50 1
    52   28   51 1
    53   29   52 1
    54   29   53 1
    55   30   31 1
    56   30   32 1
    57   30   33 1
    58   54   55 1
@<TRIPOS>MOLECULE
ZINC08583959
   54    57     0     0     0
SMALL
USER_CHARGES

@<TRIPOS>ATOM
      1 C1         -0.8537   -3.1210    2.7009 C.3       1 <0>        -0.1222
      2 C2         -1.5232   -2.6073    1.4523 C.ar      1 <0>        -0.0523
      3 C3         -1.2216   -3.1686    0.2267 C.ar      1 <0>        -0.1143
      4 C4         -1.8388   -2.6949   -0.9232 C.ar      1 <0>         0.1460
      5 C5         -2.7582   -1.6574   -0.8379 C.ar      1 <0>        -0.1362
      6 C6         -3.0561   -1.0998    0.3897 C.ar      1 <0>        -0.0830
      7 C7         -2.4437   -1.5776    1.5352 C.ar      1 <0>        -0.0497
      8 Cl1        -2.8262   -0.8795    3.0779 Cl        1 <0>        -0.0585
      9 N1         -1.5346   -3.2617   -2.1664 N.am      1 <0>        -0.6575
     10 C8         -1.1515   -4.5515   -2.2434 C.2       1 <0>         0.5348
     11 O1         -1.1644   -5.2483   -1.2507 O.2       1 <0>        -0.4999
     12 C9         -0.7069   -5.1281   -3.5629 C.3       1 <0>        -0.1631
     13 S1         -0.2584   -6.8716   -3.3405 S.3       1 <0>         0.1492
     14 C10         0.2325   -7.3941   -4.9501 C.2       1 <0>         0.3756
     15 N2          0.1923   -6.5066   -5.9215 N.2       1 <0>        -0.4670
     16 C11         0.5161   -6.9031   -7.1865 C.2       1 <0>         0.3229
     17 C12         0.7022   -8.3467   -7.4733 C.2       1 <0>        -0.3565
     18 C13         1.0045   -8.4562   -8.7881 C.2       1 <0>         0.2281
     19 N3          1.0195   -7.2112   -9.3075 N.pl3     1 <0>        -0.4243
     20 H1          1.2091   -6.9953  -10.2340 H         1 <0>         0.4642
     21 N4          0.7188   -6.2750   -8.3052 N.2       1 <0>        -0.2281
     22 C14         1.2759   -9.7363   -9.5357 C.3       1 <0>        -0.1296
     23 C15         0.5421   -9.3104   -6.3630 C.cat     1 <0>         0.6303
     24 N5          0.3401  -10.5902   -6.5357 N.pl3     1 <0>        -0.7099
     25 N6          0.6358   -8.6973   -5.1039 N.pl3     1 <0>        -0.4679
     26 C16         1.1346   -9.4129   -4.0061 C.ar      1 <0>        -0.0085
     27 C17         2.4428   -9.2157   -3.5849 C.ar      1 <0>        -0.0340
     28 C18         2.9335   -9.9207   -2.5038 C.ar      1 <0>        -0.1341
     29 C19         2.1195  -10.8258   -1.8384 C.ar      1 <0>         0.1786
     30 C20         0.8123  -11.0233   -2.2587 C.ar      1 <0>        -0.1934
     31 C21         0.3187  -10.3147   -3.3362 C.ar      1 <0>        -0.0595
     32 O2          2.6034  -11.5200   -0.7742 O.3       1 <0>        -0.3012
     33 C22         1.7103  -12.4353   -0.1364 C.3       1 <0>         0.0182
     34 H2         -1.4480   -3.9303    3.1251 H         1 <0>         0.0799
     35 H3          0.1410   -3.4917    2.4535 H         1 <0>         0.0726
     36 H4         -0.7699   -2.3125    3.4271 H         1 <0>         0.0777
     37 H5         -0.5061   -3.9751    0.1630 H         1 <0>         0.1479
     38 H6         -3.2394   -1.2869   -1.7310 H         1 <0>         0.1375
     39 H7         -3.7710   -0.2930    0.4566 H         1 <0>         0.1417
     40 H8         -1.5996   -2.7261   -2.9725 H         1 <0>         0.4188
     41 H9         -1.5196   -5.0513   -4.2852 H         1 <0>         0.1404
     42 H10         0.1577   -4.5742   -3.9285 H         1 <0>         0.1431
     43 H11         0.3415  -10.1266   -9.9390 H         1 <0>         0.1169
     44 H12         1.9702   -9.5397  -10.3526 H         1 <0>         0.1101
     45 H13         1.7123  -10.4684   -8.8562 H         1 <0>         0.0955
     46 H14         0.3402  -10.9648   -7.4304 H         1 <0>         0.4487
     47 H15         3.0767   -8.5113   -4.1031 H         1 <0>         0.1437
     48 H16         3.9512   -9.7676   -2.1763 H         1 <0>         0.1547
     49 H17         0.1792  -11.7284   -1.7405 H         1 <0>         0.1514
     50 H18        -0.7005  -10.4650   -3.6603 H         1 <0>         0.1407
     51 H19         2.2209  -12.9215    0.6949 H         1 <0>         0.1133
     52 H20         0.8413  -11.8940    0.2377 H         1 <0>         0.0662
     53 H21         1.3876  -13.1885   -0.8551 H         1 <0>         0.0637
     54 H22         0.1902  -11.1653   -5.7691 H         1 <0>         0.4383
@<TRIPOS>BOND
     1    1    2 1
     2    1   34 1
     3    1   35 1
     4    1   36 1
     5    2    7 ar
     6    2    3 ar
     7    3    4 ar
     8    3   37 1
     9    4    5 ar
    10    4    9 1
    11    5    6 ar
    12    5   38 1
    13    6    7 ar
    14    6   39 1
    15    7    8 1
    16    9   10 am
    17    9   40 1
    18   10   11 2
    19   10   12 1
    20   12   13 1
    21   12   41 1
    22   12   42 1
    23   13   14 1
    24   14   25 1
    25   14   15 2
    26   15   16 1
    27   16   21 2
    28   16   17 1
    29   17   18 2
    30   17   23 1
    31   18   19 1
    32   18   22 1
    33   19   20 1
    34   19   21 1
    35   22   43 1
    36   22   44 1
    37   22   45 1
    38   23   24 2
    39   23   25 1
    40   24   46 1
    41   24   54 1
    42   25   26 1
    43   26   31 ar
    44   26   27 ar
    45   27   28 ar
    46   27   47 1
    47   28   29 ar
    48   28   48 1
    49   29   30 ar
    50   29   32 1
    51   30   31 ar
    52   30   49 1
    53   31   50 1
    54   32   33 1
    55   33   51 1
    56   33   52 1
    57   33   53 1
@<TRIPOS>MOLECULE
ZINC39655997
   66    70     0     0     0
SMALL
USER_CHARGES

@<TRIPOS>ATOM
      1 C1         -0.3176   -5.2197   -2.2889 C.3       1 <0>        -0.1104
      2 C2         -0.3096   -3.7731   -1.8667 C.ar      1 <0>        -0.1078
      3 C3         -1.3503   -3.2753   -1.0951 C.ar      1 <0>        -0.0969
      4 C4         -1.3626   -1.9557   -0.6988 C.ar      1 <0>        -0.1203
      5 C5         -0.3224   -1.1121   -1.0739 C.ar      1 <0>         0.0909
      6 N1         -0.0511    0.2183   -0.8450 N.pl3     1 <0>        -0.5919
      7 C6          1.1266    0.5637   -1.4499 C.2       1 <0>         0.0708
      8 C7          1.6489   -0.5021   -2.0771 C.2       1 <0>        -0.1865
      9 C8          0.7306   -1.6218   -1.8557 C.ar      1 <0>        -0.0952
     10 C9          0.7253   -2.9632   -2.2418 C.ar      1 <0>        -0.0786
     11 C10         2.9357   -0.5395   -2.8606 C.3       1 <0>        -0.0476
     12 C11         2.6354   -0.3220   -4.3450 C.3       1 <0>         0.1205
     13 N2          3.8863   -0.3584   -5.1067 N.am      1 <0>        -0.7275
     14 C12         3.8664   -0.1889   -6.4436 C.2       1 <0>         0.5187
     15 O1          2.8129   -0.0062   -7.0161 O.2       1 <0>        -0.5199
     16 C13         5.1531   -0.2263   -7.2271 C.3       1 <0>        -0.1149
     17 H1          5.9843    0.1087   -6.6066 H         1 <0>         0.1132
     18 C14         5.0381    0.6527   -8.4927 C.3       1 <0>         0.0987
     19 N3          5.7859   -0.0906   -9.5340 N.am      1 <0>        -0.6178
     20 C15         5.4422   -1.5121   -9.2908 C.3       1 <0>         0.1106
     21 C16         5.4174   -1.6463   -7.7552 C.3       1 <0>        -0.0724
     22 C17         4.2953   -2.5869   -7.3264 C.3       1 <0>        -0.1467
     23 C18         4.6095   -4.0044   -7.8131 C.3       1 <0>        -0.0081
     24 N4          5.8892   -4.4462   -7.2457 N.4       1 <0>        -0.5044
     25 C19         6.9767   -3.5917   -7.7378 C.3       1 <0>        -0.0115
     26 C20         6.7626   -2.1569   -7.2478 C.3       1 <0>        -0.1345
     27 C21         6.5960    0.4121  -10.4866 C.2       1 <0>         0.5912
     28 O2          7.0681   -0.3223  -11.3327 O.2       1 <0>        -0.5079
     29 C22         6.9102    1.8551  -10.5028 C.ar      1 <0>        -0.1645
     30 C23         5.9454    2.7878  -10.1152 C.ar      1 <0>        -0.0649
     31 C24         6.2446    4.1333  -10.1318 C.ar      1 <0>        -0.1192
     32 C25         7.4983    4.5638  -10.5315 C.ar      1 <0>        -0.0512
     33 C26         8.4607    3.6486  -10.9172 C.ar      1 <0>        -0.0825
     34 C27         8.1765    2.2938  -10.9006 C.ar      1 <0>         0.1655
     35 F1          9.1180    1.3991  -11.2723 F         1 <0>        -0.1065
     36 Cl1        10.0296    4.1991  -11.4166 Cl        1 <0>        -0.0285
     37 H2         -0.8322   -5.3163   -3.2449 H         1 <0>         0.0674
     38 H3          0.7081   -5.5742   -2.3909 H         1 <0>         0.0609
     39 H4         -0.8346   -5.8150   -1.5362 H         1 <0>         0.0672
     40 H5         -2.1590   -3.9288   -0.8028 H         1 <0>         0.1275
     41 H6         -2.1774   -1.5777   -0.0991 H         1 <0>         0.1232
     42 H7          1.5704    1.5480   -1.4263 H         1 <0>         0.1707
     43 H8         -0.6117    0.8210   -0.3318 H         1 <0>         0.4198
     44 H9          1.5340   -3.3586   -2.8386 H         1 <0>         0.1143
     45 H10         3.6005    0.2477   -2.5052 H         1 <0>         0.0769
     46 H11         3.4154   -1.5089   -2.7252 H         1 <0>         0.0731
     47 H12         1.9705   -1.1093   -4.7004 H         1 <0>         0.0727
     48 H13         2.1556    0.6473   -4.4804 H         1 <0>         0.0735
     49 H14         4.7288   -0.5045   -4.6488 H         1 <0>         0.4002
     50 H15         3.9936    0.7662   -8.7829 H         1 <0>         0.1055
     51 H16         5.4938    1.6279   -8.3207 H         1 <0>         0.1010
     52 H17         4.4629   -1.7437   -9.7097 H         1 <0>         0.0884
     53 H18         6.2034   -2.1658   -9.7166 H         1 <0>         0.0908
     54 H19         4.2143   -2.5850   -6.2394 H         1 <0>         0.0982
     55 H20         3.3539   -2.2528   -7.7626 H         1 <0>         0.1269
     56 H21         3.8176   -4.6819   -7.4938 H         1 <0>         0.1399
     57 H22         4.6740   -4.0088   -8.9012 H         1 <0>         0.1335
     58 H23         5.8472   -4.3886   -6.2392 H         1 <0>         0.4277
     59 H24         7.9297   -3.9650   -7.3630 H         1 <0>         0.1403
     60 H25         6.9847   -3.6059   -8.8277 H         1 <0>         0.1342
     61 H26         7.5607   -1.5195   -7.6285 H         1 <0>         0.1178
     62 H27         6.7708   -2.1394   -6.1580 H         1 <0>         0.0977
     63 H28         4.9664    2.4552   -9.8032 H         1 <0>         0.1485
     64 H29         5.4982    4.8542   -9.8324 H         1 <0>         0.1515
     65 H30         7.7257    5.6195  -10.5425 H         1 <0>         0.1542
     66 H31         6.0645   -5.4017   -7.5183 H         1 <0>         0.4346
@<TRIPOS>BOND
     1    1   37 1
     2    1   38 1
     3    1   39 1
     4    1    2 1
     5    2    3 ar
     6    2   10 ar
     7    3    4 ar
     8    3   40 1
     9    4    5 ar
    10    4   41 1
    11    5    6 1
    12    5    9 ar
    13    6   43 1
    14    6    7 1
    15    7    8 2
    16    7   42 1
    17    8    9 1
    18    8   11 1
    19    9   10 ar
    20   10   44 1
    21   11   12 1
    22   11   45 1
    23   11   46 1
    24   12   13 1
    25   12   47 1
    26   12   48 1
    27   13   14 am
    28   13   49 1
    29   14   15 2
    30   14   16 1
    31   16   17 1
    32   16   21 1
    33   16   18 1
    34   18   19 1
    35   18   50 1
    36   18   51 1
    37   19   20 1
    38   19   27 am
    39   20   21 1
    40   20   52 1
    41   20   53 1
    42   21   26 1
    43   21   22 1
    44   22   23 1
    45   22   54 1
    46   22   55 1
    47   23   24 1
    48   23   56 1
    49   23   57 1
    50   24   25 1
    51   24   58 1
    52   24   66 1
    53   25   26 1
    54   25   59 1
    55   25   60 1
    56   26   61 1
    57   26   62 1
    58   27   28 2
    59   27   29 1
    60   29   34 ar
    61   29   30 ar
    62   30   31 ar
    63   30   63 1
    64   31   32 ar
    65   31   64 1
    66   32   33 ar
    67   32   65 1
    68   33   34 ar
    69   33   36 1
    70   34   35 1
@<TRIPOS>MOLECULE
ZINC43736816
   74    78     0     0     0
SMALL
USER_CHARGES

@<TRIPOS>ATOM
      1 C1         -0.0187    1.5296    0.0105 C.3       1 <0>        -0.1502
      2 C2          0.0021   -0.0041    0.0020 C.3       1 <0>        -0.0152
      3 C3          0.7213   -0.4038   -1.2766 C.3       1 <0>        -0.1082
      4 C4          2.2142   -0.0841   -1.2136 C.3       1 <0>        -0.0664
      5 C5          2.7994   -0.7887   -0.0083 C.2       1 <0>         0.1886
      6 N1          3.9633   -1.3637   -0.0674 N.2       1 <0>        -0.3507
      7 O1          4.4893   -2.0164    1.0738 O.3       1 <0>        -0.2210
      8 C6          5.7753   -2.6038    0.8663 C.3       1 <0>         0.0593
      9 C7          6.2358   -3.2672    2.1386 C.2       1 <0>         0.5220
     10 O2          5.5320   -3.2396    3.1260 O.2       1 <0>        -0.5113
     11 N2          7.4298   -3.8911    2.1794 N.am      1 <0>        -0.7349
     12 C8          7.8775   -4.5360    3.4163 C.3       1 <0>         0.1233
     13 C9          9.2544   -5.1649    3.1940 C.3       1 <0>        -0.0756
     14 C10         9.7149   -5.8283    4.4664 C.2       1 <0>         0.0327
     15 C11        10.3444   -5.2229    5.4915 C.2       1 <0>         0.0421
     16 N3         10.5788   -6.1853    6.4362 N.pl3     1 <0>        -0.5090
     17 H1         11.0182   -6.0574    7.2915 H         1 <0>         0.4691
     18 C12        10.0841   -7.3461    5.9552 C.cat     1 <0>         0.3106
     19 N4          9.5645   -7.1240    4.7789 N.pl3     1 <0>        -0.4740
     20 C13         2.0078   -0.8000    1.2320 C.2       1 <0>        -0.1897
     21 C14         0.7350   -0.4158    1.2323 C.2       1 <0>        -0.0271
     22 C15         0.0112   -0.3809    2.5636 C.3       1 <0>        -0.0911
     23 C16        -1.3007   -1.1329    2.4184 C.3       1 <0>        -0.1103
     24 C17        -2.1612   -0.5896    1.2884 C.3       1 <0>        -0.0595
     25 H2         -2.5555    0.3828    1.6035 H         1 <0>         0.0713
     26 C18        -1.4447   -0.4239   -0.0300 C.3       1 <0>        -0.0703
     27 H3         -1.9386    0.4361   -0.5131 H         1 <0>         0.0678
     28 C19        -1.7180   -1.5902   -0.9720 C.3       1 <0>        -0.1146
     29 C20        -3.1930   -1.5955   -1.4062 C.3       1 <0>        -0.1046
     30 C21        -4.0696   -1.2459   -0.2273 C.3       1 <0>        -0.0334
     31 C22        -3.3248   -1.5555    1.0886 C.3       1 <0>        -0.0759
     32 H4         -2.9524   -2.5890    1.0811 H         1 <0>         0.0853
     33 C23        -4.4425   -1.4197    2.1362 C.3       1 <0>        -0.1165
     34 C24        -5.6906   -2.0022    1.4242 C.3       1 <0>        -0.1442
     35 C25        -5.3311   -2.1142   -0.0777 C.3       1 <0>         0.2437
     36 C26        -6.4171   -1.5774   -0.9080 C.1       1 <0>        -0.2108
     37 C27        -7.2852   -1.1482   -1.5717 C.1       1 <0>        -0.1792
     38 O3         -5.0507   -3.4689   -0.4198 O.3       1 <0>        -0.5399
     39 C28        -4.5081    0.2186   -0.2962 C.3       1 <0>        -0.1446
     40 H5          1.0039    1.9068    0.0027 H         1 <0>         0.0578
     41 H6         -0.5459    1.8906   -0.8726 H         1 <0>         0.0642
     42 H7         -0.5289    1.8811    0.9072 H         1 <0>         0.0592
     43 H8          0.6092   -1.4797   -1.4238 H         1 <0>         0.0751
     44 H9          0.2748    0.1238   -2.1176 H         1 <0>         0.0863
     45 H10         2.7026   -0.4499   -2.1226 H         1 <0>         0.0905
     46 H11         2.3738    0.9901   -1.1340 H         1 <0>         0.0975
     47 H12         5.7112   -3.3471    0.0716 H         1 <0>         0.0889
     48 H13         6.4872   -1.8288    0.5823 H         1 <0>         0.0895
     49 H14         7.9927   -3.9132    1.3897 H         1 <0>         0.4076
     50 H15         7.9415   -3.7927    4.2109 H         1 <0>         0.0798
     51 H16         7.1655   -5.3110    3.7002 H         1 <0>         0.0726
     52 H17         9.1903   -5.9083    2.3994 H         1 <0>         0.1054
     53 H18         9.9663   -4.3899    2.9101 H         1 <0>         0.1215
     54 H19        10.6129   -4.1788    5.5557 H         1 <0>         0.2284
     55 H20        10.1104   -8.2995    6.4618 H         1 <0>         0.2679
     56 H21         2.4658   -1.1246    2.1573 H         1 <0>         0.1275
     57 H22         0.6281   -0.8621    3.3263 H         1 <0>         0.0740
     58 H23        -0.1806    0.6516    2.8563 H         1 <0>         0.0813
     59 H24        -1.0911   -2.1875    2.2259 H         1 <0>         0.0623
     60 H25        -1.8610   -1.0577    3.3534 H         1 <0>         0.0671
     61 H26        -1.0988   -1.4997   -1.8672 H         1 <0>         0.0705
     62 H27        -1.4800   -2.5305   -0.4723 H         1 <0>         0.0616
     63 H28        -3.3361   -0.8593   -2.2047 H         1 <0>         0.0595
     64 H29        -3.4506   -2.5830   -1.7956 H         1 <0>         0.0782
     65 H30        -4.2035   -2.0089    3.0244 H         1 <0>         0.0682
     66 H31        -4.6002   -0.3781    2.4103 H         1 <0>         0.0710
     67 H32        -5.9247   -2.9879    1.8256 H         1 <0>         0.0766
     68 H33        -6.5414   -1.3333    1.5537 H         1 <0>         0.0736
     69 H34        -8.0616   -0.7644   -2.1653 H         1 <0>         0.2185
     70 H35        -5.8123   -4.0597   -0.3428 H         1 <0>         0.3802
     71 H36        -5.0588    0.3898   -1.2212 H         1 <0>         0.0596
     72 H37        -5.1489    0.4465    0.5556 H         1 <0>         0.0586
     73 H38        -3.6291    0.8627   -0.2722 H         1 <0>         0.0661
     74 H39         9.1384   -7.7910    4.2182 H         1 <0>         0.4658
@<TRIPOS>BOND
     1    1    2 1
     2    1   40 1
     3    1   41 1
     4    1   42 1
     5    2   21 1
     6    2   26 1
     7    2    3 1
     8    3    4 1
     9    3   43 1
    10    3   44 1
    11    4    5 1
    12    4   45 1
    13    4   46 1
    14    5    6 2
    15    5   20 1
    16    6    7 1
    17    7    8 1
    18    8    9 1
    19    8   47 1
    20    8   48 1
    21    9   10 2
    22    9   11 am
    23   11   12 1
    24   11   49 1
    25   12   13 1
    26   12   50 1
    27   12   51 1
    28   13   14 1
    29   13   52 1
    30   13   53 1
    31   14   19 1
    32   14   15 2
    33   15   16 1
    34   15   54 1
    35   16   17 1
    36   16   18 1
    37   18   19 2
    38   18   55 1
    39   19   74 1
    40   20   21 2
    41   20   56 1
    42   21   22 1
    43   22   23 1
    44   22   57 1
    45   22   58 1
    46   23   24 1
    47   23   59 1
    48   23   60 1
    49   24   25 1
    50   24   31 1
    51   24   26 1
    52   26   27 1
    53   26   28 1
    54   28   29 1
    55   28   61 1
    56   28   62 1
    57   29   30 1
    58   29   63 1
    59   29   64 1
    60   30   35 1
    61   30   31 1
    62   30   39 1
    63   31   32 1
    64   31   33 1
    65   33   34 1
    66   33   65 1
    67   33   66 1
    68   34   35 1
    69   34   67 1
    70   34   68 1
    71   35   36 1
    72   35   38 1
    73   36   37 3
    74   37   69 1
    75   38   70 1
    76   39   71 1
    77   39   72 1
    78   39   73 1
@<TRIPOS>MOLECULE
ZINC63279878
   56    60     0     0     0
SMALL
USER_CHARGES

@<TRIPOS>ATOM
      1 C1         -0.0163    1.3482    0.0095 C.ar      1 <0>        -0.1506
      2 C2          1.1658    2.1014    0.0022 C.ar      1 <0>         0.0550
      3 C3          2.3912    1.5352   -0.0125 C.ar      1 <0>        -0.2101
      4 C4          2.5288    0.1198   -0.0218 C.ar      1 <0>         0.3278
      5 N1          3.5868   -0.6543   -0.0369 N.pl3     1 <0>        -0.5851
      6 C5          3.1432   -2.0528   -0.0408 C.3       1 <0>         0.0602
      7 C6          1.6315   -2.0084   -0.0255 C.2       1 <0>         0.0712
      8 C7          1.2951   -0.6984   -0.0144 C.ar      1 <0>        -0.1672
      9 C8          0.0021   -0.0041    0.0020 C.ar      1 <0>        -0.0122
     10 C9          0.6905   -3.1856   -0.0239 C.3       1 <0>        -0.1058
     11 C10         0.4565   -3.6534   -1.4617 C.3       1 <0>         0.1271
     12 N2         -0.4583   -4.7977   -1.4602 N.am      1 <0>        -0.7349
     13 C11        -0.8107   -5.3803   -2.6233 C.2       1 <0>         0.5758
     14 O1         -0.3695   -4.9561   -3.6740 O.2       1 <0>        -0.5284
     15 C12        -1.7319   -6.5326   -2.6217 C.ar      1 <0>        -0.1774
     16 C13        -2.2519   -7.0277   -1.4227 C.ar      1 <0>        -0.0388
     17 C14        -3.1077   -8.0974   -1.4144 C.ar      1 <0>        -0.1635
     18 C15        -3.4959   -8.7372   -2.6094 C.ar      1 <0>         0.2107
     19 C16        -2.9614   -8.2218   -3.7983 C.ar      1 <0>        -0.1524
     20 C17        -2.1073   -7.1484   -3.8220 C.ar      1 <0>         0.0274
     21 S1         -3.6409   -9.2386   -5.0900 S.3       1 <0>        -0.0959
     22 C18        -4.6450  -10.3586   -4.0343 C.3       1 <0>         0.4150
     23 H1         -4.3071  -11.3909   -4.1253 H         1 <0>         0.1412
     24 N3         -4.3554   -9.8232   -2.6973 N.pl3     1 <0>        -0.7235
     25 N4         -6.0707  -10.2441   -4.3511 N.pl3     1 <0>        -1.1081
     26 S2         -6.7507  -11.2449   -5.4818 S.o2      1 <0>         2.6896
     27 O2         -8.1304  -10.9104   -5.5430 O.2       1 <0>        -0.9382
     28 O3         -5.9051  -11.2021   -6.6230 O.2       1 <0>        -0.9321
     29 C19        -6.6581  -12.8862   -4.8477 C.ar      1 <0>        -0.7003
     30 C20        -5.5493  -13.6678   -5.1136 C.ar      1 <0>         0.0030
     31 C21        -5.4753  -14.9552   -4.6164 C.ar      1 <0>        -0.1717
     32 C22        -6.5123  -15.4620   -3.8517 C.ar      1 <0>         0.1637
     33 C23        -7.6223  -14.6782   -3.5860 C.ar      1 <0>        -0.1727
     34 C24        -7.6917  -13.3893   -4.0798 C.ar      1 <0>         0.0134
     35 F1         -6.4413  -16.7205   -3.3655 F         1 <0>        -0.1241
     36 H2         -0.9665    1.8612    0.0259 H         1 <0>         0.1581
     37 H3          1.0933    3.1789    0.0083 H         1 <0>         0.1611
     38 H4          3.2717    2.1606   -0.0175 H         1 <0>         0.1607
     39 H5          3.4952   -2.5561   -0.9413 H         1 <0>         0.1753
     40 H6          3.5129   -2.5667    0.8465 H         1 <0>         0.1749
     41 H7         -0.9210   -0.5647    0.0081 H         1 <0>         0.1609
     42 H8          1.1268   -3.9987    0.5563 H         1 <0>         0.1194
     43 H9         -0.2596   -2.8905    0.4214 H         1 <0>         0.1164
     44 H10         0.0203   -2.8403   -2.0419 H         1 <0>         0.0803
     45 H11         1.4067   -3.9484   -1.9070 H         1 <0>         0.0795
     46 H12        -0.8103   -5.1361   -0.6220 H         1 <0>         0.4046
     47 H13        -1.9747   -6.5606   -0.4892 H         1 <0>         0.1299
     48 H14        -3.4931   -8.4586   -0.4724 H         1 <0>         0.1333
     49 H15        -1.7231   -6.7821   -4.7625 H         1 <0>         0.1463
     50 H16        -4.7511  -10.2154   -1.9033 H         1 <0>         0.4198
     51 H17        -6.6165   -9.5820   -3.8986 H         1 <0>         0.4275
     52 H18        -4.7407  -13.2724   -5.7104 H         1 <0>         0.1532
     53 H19        -4.6091  -15.5657   -4.8246 H         1 <0>         0.1509
     54 H20        -8.4320  -15.0726   -2.9898 H         1 <0>         0.1506
     55 H21        -8.5555  -12.7762   -3.8690 H         1 <0>         0.1531
     56 H22         4.5087   -0.3528   -0.0446 H         1 <0>         0.4562
@<TRIPOS>BOND
     1    1    9 ar
     2    1    2 ar
     3    1   36 1
     4    2    3 ar
     5    2   37 1
     6    3    4 ar
     7    3   38 1
     8    4    8 ar
     9    4    5 2
    10    5    6 1
    11    5   56 1
    12    6    7 1
    13    6   39 1
    14    6   40 1
    15    7    8 2
    16    7   10 1
    17    8    9 ar
    18    9   41 1
    19   10   11 1
    20   10   42 1
    21   10   43 1
    22   11   12 1
    23   11   44 1
    24   11   45 1
    25   12   13 am
    26   12   46 1
    27   13   14 2
    28   13   15 1
    29   15   20 ar
    30   15   16 ar
    31   16   17 ar
    32   16   47 1
    33   17   18 ar
    34   17   48 1
    35   18   24 1
    36   18   19 ar
    37   19   20 ar
    38   19   21 1
    39   20   49 1
    40   21   22 1
    41   22   23 1
    42   22   24 1
    43   22   25 1
    44   24   50 1
    45   25   26 1
    46   25   51 1
    47   26   27 2
    48   26   28 2
    49   26   29 1
    50   29   34 ar
    51   29   30 ar
    52   30   31 ar
    53   30   52 1
    54   31   32 ar
    55   31   53 1
    56   32   33 ar
    57   32   35 1
    58   33   34 ar
    59   33   54 1
    60   34   55 1
@<TRIPOS>MOLECULE
ZINC19715554
   54    57     0     0     0
SMALL
USER_CHARGES
2-[[2-[(2S)-2-(4-methoxyphenyl)pyrrolidin-1-yl]acetyl]amino]-5,6-dihydro-4H-cyclopenta[d]thiophene-3-carboxamide
@<TRIPOS>ATOM
      1 C1         -0.4307   -5.0737   -8.5777 C.3       1 <0>         0.0173
      2 O1         -0.9098   -5.2257   -7.2401 O.3       1 <0>        -0.3063
      3 C2         -1.7627   -4.2737   -6.7783 C.ar      1 <0>         0.1619
      4 C3         -2.2666   -4.3589   -5.4886 C.ar      1 <0>        -0.1419
      5 C4         -3.1331   -3.3897   -5.0214 C.ar      1 <0>        -0.0459
      6 C5         -3.4982   -2.3354   -5.8381 C.ar      1 <0>        -0.1906
      7 C6         -3.0018   -2.2512   -7.1258 C.ar      1 <0>        -0.0767
      8 C7         -2.1306   -3.2148   -7.5957 C.ar      1 <0>        -0.1977
      9 C8         -4.4436   -1.2795   -5.3258 C.3       1 <0>         0.0903
     10 H1         -4.4226   -1.3678   -4.2296 H         1 <0>         0.1510
     11 C9         -5.8450   -1.4432   -5.9660 C.3       1 <0>        -0.1313
     12 C10        -6.4433   -0.0220   -5.8564 C.3       1 <0>        -0.1419
     13 C11        -5.2297    0.9158   -5.7185 C.3       1 <0>        -0.0056
     14 N1         -4.0183    0.0695   -5.7794 N.4       1 <0>        -0.3926
     15 C12        -2.9578    0.6053   -4.9154 C.3       1 <0>        -0.0241
     16 C13        -2.4998    1.9378   -5.4499 C.2       1 <0>         0.4988
     17 O2         -2.9247    2.3442   -6.5107 O.2       1 <0>        -0.5009
     18 N2         -1.6181    2.6780   -4.7490 N.am      1 <0>        -0.6076
     19 C14        -1.1967    3.9041   -5.2408 C.2       1 <0>         0.0357
     20 C15        -0.3063    4.7988   -4.6726 C.2       1 <0>        -0.1777
     21 C16        -0.0348    6.0382   -5.3999 C.2       1 <0>        -0.1012
     22 C17        -0.6845    6.1674   -6.5707 C.2       1 <0>        -0.2130
     23 S1         -1.6566    4.6878   -6.7137 S.3       1 <0>         0.2576
     24 C18        -0.3469    7.4596   -7.2637 C.3       1 <0>        -0.0414
     25 C19         0.9490    7.9432   -6.5760 C.3       1 <0>        -0.1132
     26 C20         0.8363    7.2775   -5.1900 C.3       1 <0>        -0.0590
     27 C21         0.3366    4.5170   -3.3853 C.2       1 <0>         0.5759
     28 O3          1.4003    3.9262   -3.3528 O.2       1 <0>        -0.5364
     29 N3         -0.2502    4.9120   -2.2381 N.am      1 <0>        -0.8693
     30 H2          0.2455   -5.9063   -8.8218 H         1 <0>         0.1135
     31 H3          0.1130   -4.1216   -8.6664 H         1 <0>         0.0625
     32 H4         -1.2818   -5.0763   -9.2745 H         1 <0>         0.0635
     33 H5         -1.9815   -5.1820   -4.8502 H         1 <0>         0.1457
     34 H6         -3.5254   -3.4553   -4.0173 H         1 <0>         0.1412
     35 H7         -3.2922   -1.4293   -7.7633 H         1 <0>         0.1219
     36 H8         -1.7396   -3.1463   -8.6002 H         1 <0>         0.1412
     37 H9         -5.7352   -1.7772   -7.0083 H         1 <0>         0.1006
     38 H10        -6.4215   -2.1901   -5.4005 H         1 <0>         0.1197
     39 H11        -7.0264    0.2012   -6.7620 H         1 <0>         0.1078
     40 H12        -7.0993    0.0327   -4.9751 H         1 <0>         0.1064
     41 H13        -5.2350    1.6458   -6.5414 H         1 <0>         0.1429
     42 H14        -5.2842    1.4470   -4.7568 H         1 <0>         0.1280
     43 H15        -3.3466    0.7337   -3.8944 H         1 <0>         0.1616
     44 H16        -2.1093   -0.0946   -4.8993 H         1 <0>         0.1663
     45 H17        -1.2328    2.3095   -3.7868 H         1 <0>         0.4545
     46 H18        -0.1952    7.2714   -8.3368 H         1 <0>         0.0832
     47 H19        -1.1725    8.1740   -7.1299 H         1 <0>         0.0898
     48 H20         1.8204    7.5987   -7.1522 H         1 <0>         0.0810
     49 H21         0.9513    9.0422   -6.5296 H         1 <0>         0.0902
     50 H22         0.3536    7.9459   -4.4619 H         1 <0>         0.0849
     51 H23         1.8225    6.9725   -4.8100 H         1 <0>         0.0777
     52 H24         0.2322    4.7005   -1.2724 H         1 <0>         0.4284
     53 H25        -1.2115    5.4458   -2.2675 H         1 <0>         0.4228
     54 H26        -3.5942    0.0451   -6.7941 H         1 <0>         0.4508
@<TRIPOS>BOND
     1    1    2 1
     2    1   30 1
     3    1   31 1
     4    1   32 1
     5    2    3 1
     6    3    8 ar
     7    3    4 ar
     8    4    5 ar
     9    4   33 1
    10    5    6 ar
    11    5   34 1
    12    6    7 ar
    13    6    9 1
    14    7    8 ar
    15    7   35 1
    16    8   36 1
    17    9   10 1
    18    9   14 1
    19    9   11 1
    20   11   12 1
    21   11   37 1
    22   11   38 1
    23   12   13 1
    24   12   39 1
    25   12   40 1
    26   13   14 1
    27   13   41 1
    28   13   42 1
    29   14   15 1
    30   14   54 1
    31   15   16 1
    32   15   43 1
    33   15   44 1
    34   16   17 2
    35   16   18 am
    36   18   19 1
    37   18   45 1
    38   19   23 1
    39   19   20 2
    40   20   21 1
    41   20   27 1
    42   21   26 1
    43   21   22 2
    44   22   23 1
    45   22   24 1
    46   24   25 1
    47   24   46 1
    48   24   47 1
    49   25   26 1
    50   25   48 1
    51   25   49 1
    52   26   50 1
    53   26   51 1
    54   27   28 2
    55   27   29 am
    56   29   52 1
    57   29   53 1
@<TRIPOS>MOLECULE
ZINC46342334
   46    48     0     0     0
SMALL
USER_CHARGES

@<TRIPOS>ATOM
      1 C1         -0.0166    1.3726    0.0096 C.ar      1 <0>        -0.0836
      2 C2          1.1689    2.0927    0.0021 C.ar      1 <0>        -0.0726
      3 C3          2.3836    1.4388   -0.0130 C.ar      1 <0>        -0.0899
      4 C4          2.4213    0.0528   -0.0208 C.ar      1 <0>         0.0856
      5 C5          1.2239   -0.6813   -0.0133 C.ar      1 <0>         0.0619
      6 C6          0.0021   -0.0041    0.0020 C.ar      1 <0>        -0.0771
      7 N1          1.5618   -1.9977   -0.0236 N.pl3     1 <0>        -0.5374
      8 C7          2.8660   -2.1169   -0.0368 C.cat     1 <0>         0.6521
      9 N2          3.4451   -0.8803   -0.0356 N.pl3     1 <0>        -0.4666
     10 C8          4.8817   -0.5937   -0.0485 C.3       1 <0>         0.0753
     11 C9          5.3963   -0.5011    1.3894 C.3       1 <0>         0.0875
     12 H1          4.8108    0.2368    1.9379 H         1 <0>         0.1286
     13 C10         6.8670   -0.0795    1.3786 C.3       1 <0>         0.0282
     14 O1          7.3151    0.1200    2.7208 O.3       1 <0>        -0.2971
     15 C11         8.6091    0.5003    2.8891 C.ar      1 <0>         0.1367
     16 C12         9.4286    0.6832    1.7848 C.ar      1 <0>        -0.2048
     17 C13        10.7435    1.0697    1.9582 C.ar      1 <0>        -0.0489
     18 C14        11.2432    1.2744    3.2319 C.ar      1 <0>        -0.1244
     19 C15        10.4277    1.0921    4.3345 C.ar      1 <0>        -0.0475
     20 C16         9.1105    0.7116    4.1652 C.ar      1 <0>        -0.1395
     21 Br1        13.0435    1.8034    3.4661 Br        1 <0>        -0.0383
     22 O2          5.2707   -1.7756    2.0233 O.3       1 <0>        -0.5355
     23 N3          3.5521   -3.3130   -0.0498 N.pl3     1 <0>        -0.6686
     24 C17         2.8161   -4.5797   -0.0501 C.3       1 <0>         0.1021
     25 C18         3.8070   -5.7453   -0.0657 C.3       1 <0>         0.0622
     26 O3          4.5605   -5.7463    1.1485 O.3       1 <0>        -0.5730
     27 H2         -0.9613    1.8958    0.0260 H         1 <0>         0.1544
     28 H3          1.1408    3.1723    0.0079 H         1 <0>         0.1542
     29 H4          3.3031    2.0053   -0.0191 H         1 <0>         0.1464
     30 H5         -0.9247   -0.5585    0.0083 H         1 <0>         0.1502
     31 H6          5.4070   -1.3929   -0.5716 H         1 <0>         0.1132
     32 H7          5.0589    0.3526   -0.5595 H         1 <0>         0.1355
     33 H8          7.4652   -0.8598    0.9080 H         1 <0>         0.0755
     34 H9          6.9747    0.8489    0.8178 H         1 <0>         0.0824
     35 H10         9.0390    0.5232    0.7904 H         1 <0>         0.1334
     36 H11        11.3819    1.2118    1.0987 H         1 <0>         0.1385
     37 H12        10.8198    1.2521    5.3280 H         1 <0>         0.1445
     38 H13         8.4728    0.5744    5.0260 H         1 <0>         0.1426
     39 H14         5.7669   -2.4821    1.5876 H         1 <0>         0.3758
     40 H15         4.5221   -3.3157   -0.0587 H         1 <0>         0.4339
     41 H16         2.1975   -4.6407    0.8453 H         1 <0>         0.0976
     42 H17         2.1811   -4.6307   -0.9346 H         1 <0>         0.1020
     43 H18         3.2615   -6.6847   -0.1555 H         1 <0>         0.0859
     44 H19         4.4837   -5.6356   -0.9132 H         1 <0>         0.0649
     45 H20         5.2101   -6.4602    1.2077 H         1 <0>         0.3990
     46 H21         0.9329   -2.7362   -0.0213 H         1 <0>         0.4548
@<TRIPOS>BOND
     1    1    6 ar
     2    1    2 ar
     3    1   27 1
     4    2    3 ar
     5    2   28 1
     6    3    4 ar
     7    3   29 1
     8    4    9 1
     9    4    5 ar
    10    5    6 ar
    11    5    7 1
    12    6   30 1
    13    7    8 2
    14    7   46 1
    15    8    9 1
    16    8   23 1
    17    9   10 1
    18   10   11 1
    19   10   31 1
    20   10   32 1
    21   11   12 1
    22   11   13 1
    23   11   22 1
    24   13   14 1
    25   13   33 1
    26   13   34 1
    27   14   15 1
    28   15   20 ar
    29   15   16 ar
    30   16   17 ar
    31   16   35 1
    32   17   18 ar
    33   17   36 1
    34   18   19 ar
    35   18   21 1
    36   19   20 ar
    37   19   37 1
    38   20   38 1
    39   22   39 1
    40   23   24 1
    41   23   40 1
    42   24   25 1
    43   24   41 1
    44   24   42 1
    45   25   26 1
    46   25   43 1
    47   25   44 1
    48   26   45 1
@<TRIPOS>MOLECULE
ZINC60197253
   58    60     0     0     0
SMALL
USER_CHARGES

@<TRIPOS>ATOM
      1 C1         -3.9422  -12.9057  -13.2710 C.3       1 <0>         0.0258
      2 O1         -3.5738  -12.7461  -11.8996 O.3       1 <0>        -0.3159
      3 C2         -2.2764  -12.4347  -11.6414 C.ar      1 <0>         0.1493
      4 C3         -1.3778  -12.2802  -12.6880 C.ar      1 <0>        -0.2174
      5 C4         -0.0586  -11.9630  -12.4271 C.ar      1 <0>        -0.0584
      6 C5          0.3706  -11.7992  -11.1240 C.ar      1 <0>        -0.1576
      7 C6         -0.5242  -11.9525  -10.0729 C.ar      1 <0>         0.1800
      8 C7         -1.8511  -12.2655  -10.3334 C.ar      1 <0>        -0.1789
      9 N1         -0.0896  -11.7865   -8.7533 N.am      1 <0>        -0.6655
     10 C8          0.8861  -10.9005   -8.4715 C.2       1 <0>         0.5171
     11 O2          1.3209  -10.1793   -9.3443 O.2       1 <0>        -0.4974
     12 C9          1.4370  -10.8060   -7.0720 C.3       1 <0>         0.0582
     13 O3          2.3672   -9.7238   -6.9983 O.3       1 <0>        -0.2001
     14 N2          2.8619   -9.4772   -5.6946 N.2       1 <0>        -0.4066
     15 C10         3.6402   -8.4583   -5.4762 C.2       1 <0>         0.3960
     16 C11         3.9328   -7.5028   -6.5686 C.ar      1 <0>        -0.0805
     17 C12         4.4834   -7.9566   -7.7672 C.ar      1 <0>        -0.0561
     18 C13         4.7539   -7.0613   -8.7814 C.ar      1 <0>        -0.0822
     19 C14         4.4804   -5.7156   -8.6113 C.ar      1 <0>        -0.0946
     20 C15         3.9348   -5.2595   -7.4250 C.ar      1 <0>        -0.0922
     21 C16         3.6537   -6.1463   -6.4055 C.ar      1 <0>        -0.1362
     22 C17         3.0525   -5.6487   -5.1163 C.3       1 <0>         0.0360
     23 N3          1.6255   -5.9954   -5.0756 N.4       1 <0>        -0.3823
     24 C18         0.9173   -5.2722   -6.1385 C.3       1 <0>        -0.0107
     25 C19        -0.5544   -5.6910   -6.1525 C.3       1 <0>        -0.1452
     26 C20        -1.1869   -5.3589   -4.7979 C.3       1 <0>        -0.1380
     27 C21        -0.3946   -6.0592   -3.6902 C.3       1 <0>        -0.1459
     28 C22         1.0711   -5.6266   -3.7675 C.3       1 <0>        -0.0086
     29 N4          4.1952   -8.2673   -4.2222 N.pl3     1 <0>        -0.8316
     30 H1         -3.7513  -11.9771  -13.8090 H         1 <0>         0.0580
     31 H2         -3.3542  -13.7097  -13.7140 H         1 <0>         0.0591
     32 H3         -5.0019  -13.1522  -13.3363 H         1 <0>         0.1042
     33 H4         -1.7102  -12.4084  -13.7076 H         1 <0>         0.1326
     34 H5          0.6386  -11.8434  -13.2432 H         1 <0>         0.1317
     35 H6          1.4024  -11.5520  -10.9227 H         1 <0>         0.1355
     36 H7         -2.5499  -12.3809   -9.5180 H         1 <0>         0.1348
     37 H8         -0.4907  -12.3090   -8.0412 H         1 <0>         0.4152
     38 H9          0.6206  -10.6317   -6.3712 H         1 <0>         0.0894
     39 H10         1.9423  -11.7375   -6.8168 H         1 <0>         0.0980
     40 H11         4.6980   -9.0066   -7.9008 H         1 <0>         0.1383
     41 H12         5.1802   -7.4114   -9.7099 H         1 <0>         0.1418
     42 H13         4.6942   -5.0185   -9.4080 H         1 <0>         0.1409
     43 H14         3.7239   -4.2079   -7.2980 H         1 <0>         0.1380
     44 H15         3.5636   -6.1141   -4.2736 H         1 <0>         0.1345
     45 H16         3.1652   -4.5662   -5.0568 H         1 <0>         0.1419
     46 H17         0.9876   -4.1997   -5.9568 H         1 <0>         0.1306
     47 H18         1.3706   -5.5071   -7.1015 H         1 <0>         0.1292
     48 H19        -1.0789   -5.1516   -6.9412 H         1 <0>         0.1131
     49 H20        -0.6259   -6.7634   -6.3344 H         1 <0>         0.0842
     50 H21        -1.1616   -4.2809   -4.6384 H         1 <0>         0.0833
     51 H22        -2.2198   -5.7066   -4.7829 H         1 <0>         0.0946
     52 H23        -0.8049   -5.7829   -2.7189 H         1 <0>         0.1142
     53 H24        -0.4628   -7.1391   -3.8210 H         1 <0>         0.0855
     54 H25         1.6380   -6.1233   -2.9800 H         1 <0>         0.1292
     55 H26         1.1382   -4.5466   -3.6363 H         1 <0>         0.1317
     56 H27         4.0035   -8.8934   -3.5065 H         1 <0>         0.4160
     57 H28         4.7757   -7.5074   -4.0593 H         1 <0>         0.4156
     58 H29         1.5175   -6.9885   -5.2177 H         1 <0>         0.4183
@<TRIPOS>BOND
     1    1    2 1
     2    1   30 1
     3    1   31 1
     4    1   32 1
     5    2    3 1
     6    3    8 ar
     7    3    4 ar
     8    4    5 ar
     9    4   33 1
    10    5    6 ar
    11    5   34 1
    12    6    7 ar
    13    6   35 1
    14    7    8 ar
    15    7    9 1
    16    8   36 1
    17    9   10 am
    18    9   37 1
    19   10   11 2
    20   10   12 1
    21   12   13 1
    22   12   38 1
    23   12   39 1
    24   13   14 1
    25   14   15 2
    26   15   16 1
    27   15   29 1
    28   16   21 ar
    29   16   17 ar
    30   17   18 ar
    31   17   40 1
    32   18   19 ar
    33   18   41 1
    34   19   20 ar
    35   19   42 1
    36   20   21 ar
    37   20   43 1
    38   21   22 1
    39   22   23 1
    40   22   44 1
    41   22   45 1
    42   23   28 1
    43   23   24 1
    44   23   58 1
    45   24   25 1
    46   24   46 1
    47   24   47 1
    48   25   26 1
    49   25   48 1
    50   25   49 1
    51   26   27 1
    52   26   50 1
    53   26   51 1
    54   27   28 1
    55   27   52 1
    56   27   53 1
    57   28   54 1
    58   28   55 1
    59   29   56 1
    60   29   57 1
@<TRIPOS>MOLECULE
ZINC13120574__1
   46    49     0     0     0
SMALL
USER_CHARGES

@<TRIPOS>ATOM
      1 C1         -1.2554    1.1606   -0.2213 C.3       1 <0>        -0.0786
      2 C2         -0.4942   -0.1330   -0.0869 C.2       1 <0>         0.1472
      3 C3          0.1709   -0.7713   -1.0872 C.2       1 <0>        -0.0262
      4 C4          0.7617   -1.9837   -0.5053 C.2       1 <0>         0.5469
      5 O1          1.4333   -2.8149   -1.0884 O.2       1 <0>        -0.5301
      6 N1          0.4179   -1.9995    0.7991 N.am      1 <0>        -0.3682
      7 N2         -0.3506   -0.8608    1.0641 N.pl3     1 <0>        -0.4080
      8 C5         -0.9160   -0.5047    2.3678 C.3       1 <0>         0.1123
      9 C6          0.7725   -2.9829    1.7279 C.ar      1 <0>         0.1676
     10 C7         -0.1891   -3.5202    2.5739 C.ar      1 <0>        -0.1361
     11 C8          0.1644   -4.4913    3.4901 C.ar      1 <0>        -0.1055
     12 C9          1.4740   -4.9287    3.5657 C.ar      1 <0>        -0.1314
     13 C10         2.4339   -4.3958    2.7249 C.ar      1 <0>        -0.1000
     14 C11         2.0859   -3.4286    1.8025 C.ar      1 <0>        -0.1079
     15 N3          0.2708   -0.3598   -2.3950 N.2       1 <0>        -0.5146
     16 C12         1.2053    0.4884   -2.7450 C.2       1 <0>         0.5350
     17 S1          2.2807    1.1672   -1.5254 S.3       1 <0>        -0.8727
     18 N4          1.3476    0.8506   -4.0693 N.pl3     1 <0>        -0.4546
     19 N5          0.5603    0.3537   -4.9621 N.2       1 <0>        -0.0613
     20 C13         0.7652    0.6096   -6.2341 C.2       1 <0>        -0.0768
     21 C14         1.9258    1.3033   -6.8388 C.ar      1 <0>        -0.1133
     22 C15         3.0818    1.8654   -6.3085 C.ar      1 <0>        -0.0783
     23 C16         4.0031    2.4572   -7.1491 C.ar      1 <0>        -0.1315
     24 C17         3.7758    2.4903   -8.5148 C.ar      1 <0>        -0.0911
     25 C18         2.6313    1.9356   -9.0506 C.ar      1 <0>        -0.1360
     26 C19         1.6919    1.3346   -8.2197 C.ar      1 <0>         0.1500
     27 N6          0.4791    0.7129   -8.4935 N.am      1 <0>        -0.6514
     28 C20        -0.1066    0.2632   -7.3707 C.2       1 <0>         0.5980
     29 O2         -1.1708   -0.3244   -7.3040 O.2       1 <0>        -0.4991
     30 H1         -0.5854    1.9983   -0.0277 H         1 <0>         0.0864
     31 H2         -1.6572    1.2425   -1.2312 H         1 <0>         0.0848
     32 H3         -2.0744    1.1767    0.4979 H         1 <0>         0.0620
     33 H4         -1.3903    0.4745    2.3029 H         1 <0>         0.0972
     34 H5         -1.6576   -1.2491    2.6578 H         1 <0>         0.0592
     35 H6         -0.1209   -0.4747    3.1127 H         1 <0>         0.0655
     36 H7         -1.2120   -3.1788    2.5156 H         1 <0>         0.1248
     37 H8         -0.5828   -4.9092    4.1485 H         1 <0>         0.1262
     38 H9          1.7480   -5.6880    4.2833 H         1 <0>         0.1240
     39 H10         3.4558   -4.7396    2.7864 H         1 <0>         0.1286
     40 H11         2.8350   -3.0160    1.1430 H         1 <0>         0.1320
     41 H12         2.0398    1.4789   -4.3285 H         1 <0>         0.3975
     42 H13         3.2580    1.8394   -5.2433 H         1 <0>         0.1239
     43 H14         4.9021    2.8952   -6.7412 H         1 <0>         0.1301
     44 H15         4.5008    2.9549   -9.1667 H         1 <0>         0.1291
     45 H16         2.4649    1.9683  -10.1172 H         1 <0>         0.1262
     46 H17         0.1050    0.6127   -9.3829 H         1 <0>         0.4181
@<TRIPOS>BOND
     1    1    2 1
     2    1   30 1
     3    1   31 1
     4    1   32 1
     5    2    7 1
     6    2    3 2
     7    3    4 1
     8    3   15 1
     9    4    5 2
    10    4    6 am
    11    6    7 1
    12    6    9 1
    13    7    8 1
    14    8   33 1
    15    8   34 1
    16    8   35 1
    17    9   14 ar
    18    9   10 ar
    19   10   11 ar
    20   10   36 1
    21   11   12 ar
    22   11   37 1
    23   12   13 ar
    24   12   38 1
    25   13   14 ar
    26   13   39 1
    27   14   40 1
    28   15   16 2
    29   16   17 1
    30   16   18 1
    31   18   19 1
    32   18   41 1
    33   19   20 2
    34   20   28 1
    35   20   21 1
    36   21   26 ar
    37   21   22 ar
    38   22   23 ar
    39   22   42 1
    40   23   24 ar
    41   23   43 1
    42   24   25 ar
    43   24   44 1
    44   25   26 ar
    45   25   45 1
    46   26   27 1
    47   27   28 am
    48   27   46 1
    49   28   29 2
@<TRIPOS>MOLECULE
ZINC66785891
   58    60     0     0     0
SMALL
USER_CHARGES

@<TRIPOS>ATOM
      1 C1         -0.9007    1.2436    0.1362 C.3       1 <0>        -0.1488
      2 C2         -0.4519   -0.1948    0.1101 C.2       1 <0>         0.1198
      3 C3         -0.4758   -0.9228   -1.0793 C.2       1 <0>        -0.2451
      4 C4         -0.0693   -2.2180   -1.0939 C.2       1 <0>         0.2078
      5 N1          0.3649   -2.8305    0.0333 N.am      1 <0>        -0.5996
      6 H1          0.6492   -3.7571   -0.0063 H         1 <0>         0.4207
      7 C5          0.4087   -2.1738    1.2080 C.2       1 <0>         0.5420
      8 O1          0.8028   -2.7419    2.2117 O.2       1 <0>        -0.5531
      9 C6         -0.0010   -0.8167    1.2727 C.2       1 <0>        -0.3133
     10 C7          0.0445   -0.0812    2.5453 C.2       1 <0>         0.5888
     11 O2         -0.4938    1.0058    2.6392 O.2       1 <0>        -0.5221
     12 N2          0.6826   -0.6112    3.6075 N.am      1 <0>        -0.6603
     13 C8          0.6076    0.0184    4.8540 C.ar      1 <0>         0.1759
     14 C9          0.4319    1.3949    4.9285 C.ar      1 <0>        -0.1390
     15 C10         0.3582    2.0175    6.1593 C.ar      1 <0>        -0.0799
     16 C11         0.4588    1.2744    7.3200 C.ar      1 <0>        -0.1406
     17 C12         0.6344   -0.1018    7.2524 C.ar      1 <0>         0.1488
     18 C13         0.7027   -0.7312    6.0176 C.ar      1 <0>        -0.1720
     19 N3          0.7371   -0.8533    8.4282 N.am      1 <0>        -0.6599
     20 C14         0.0874   -0.4566    9.5404 C.2       1 <0>         0.5183
     21 O3         -0.6827    0.4791    9.4917 O.2       1 <0>        -0.5097
     22 C15         0.3179   -1.1757   10.8446 C.3       1 <0>        -0.1725
     23 C16        -0.5344   -0.5314   11.9398 C.3       1 <0>         0.0058
     24 N4         -0.3097   -1.2323   13.2111 N.4       1 <0>        -0.3827
     25 C17        -0.7893   -2.6149   13.0971 C.3       1 <0>        -0.0145
     26 C18        -0.4843   -3.3728   14.3910 C.3       1 <0>        -0.1453
     27 C19        -1.1906   -2.6806   15.5602 C.3       1 <0>        -0.1402
     28 C20        -0.7386   -1.2188   15.6236 C.3       1 <0>        -0.1459
     29 C21        -1.0342   -0.5407   14.2841 C.3       1 <0>        -0.0062
     30 C22        -0.1021   -2.9887   -2.3885 C.3       1 <0>        -0.1369
     31 H2         -0.0307    1.8969    0.0708 H         1 <0>         0.0914
     32 H3         -1.5619    1.4333   -0.7094 H         1 <0>         0.0740
     33 H4         -1.4342    1.4409    1.0660 H         1 <0>         0.1168
     34 H5         -0.8188   -0.4553   -1.9905 H         1 <0>         0.1593
     35 H6          1.1939   -1.4295    3.5075 H         1 <0>         0.4240
     36 H7          0.3534    1.9785    4.0232 H         1 <0>         0.1563
     37 H8          0.2221    3.0875    6.2146 H         1 <0>         0.1322
     38 H9          0.4011    1.7643    8.2808 H         1 <0>         0.1325
     39 H10         0.8347   -1.8017    5.9624 H         1 <0>         0.1294
     40 H11         1.2758   -1.6598    8.4428 H         1 <0>         0.4137
     41 H12         0.0384   -2.2236   10.7360 H         1 <0>         0.1187
     42 H13         1.3712   -1.1069   11.1162 H         1 <0>         0.1213
     43 H14        -0.2549    0.5166   12.0484 H         1 <0>         0.1417
     44 H15        -1.5877   -0.6002   11.6681 H         1 <0>         0.1397
     45 H16        -1.8653   -2.6126   12.9229 H         1 <0>         0.1305
     46 H17        -0.2881   -3.1053   12.2626 H         1 <0>         0.1294
     47 H18        -0.8427   -4.3986   14.3050 H         1 <0>         0.1121
     48 H19         0.5916   -3.3760   14.5660 H         1 <0>         0.0879
     49 H20        -2.2695   -2.7224   15.4106 H         1 <0>         0.0822
     50 H21        -0.9309   -3.1831   16.4920 H         1 <0>         0.0944
     51 H22        -1.2788   -0.7049   16.4187 H         1 <0>         0.1130
     52 H23         0.3320   -1.1772   15.8242 H         1 <0>         0.0878
     53 H24        -0.7138    0.5003   14.3258 H         1 <0>         0.1320
     54 H25        -2.1049   -0.5826   14.0846 H         1 <0>         0.1299
     55 H26         0.8500   -2.8709   -2.9058 H         1 <0>         0.1006
     56 H27        -0.2733   -4.0445   -2.1785 H         1 <0>         0.0846
     57 H28        -0.9069   -2.6083   -3.0176 H         1 <0>         0.1023
     58 H29         0.6770   -1.2370   13.4216 H         1 <0>         0.4219
@<TRIPOS>BOND
     1    1    2 1
     2    1   31 1
     3    1   32 1
     4    1   33 1
     5    2    9 2
     6    2    3 1
     7    3    4 2
     8    3   34 1
     9    4    5 1
    10    4   30 1
    11    5    6 1
    12    5    7 am
    13    7    8 2
    14    7    9 1
    15    9   10 1
    16   10   11 2
    17   10   12 am
    18   12   13 1
    19   12   35 1
    20   13   18 ar
    21   13   14 ar
    22   14   15 ar
    23   14   36 1
    24   15   16 ar
    25   15   37 1
    26   16   17 ar
    27   16   38 1
    28   17   18 ar
    29   17   19 1
    30   18   39 1
    31   19   20 am
    32   19   40 1
    33   20   21 2
    34   20   22 1
    35   22   23 1
    36   22   41 1
    37   22   42 1
    38   23   24 1
    39   23   43 1
    40   23   44 1
    41   24   29 1
    42   24   25 1
    43   24   58 1
    44   25   26 1
    45   25   45 1
    46   25   46 1
    47   26   27 1
    48   26   47 1
    49   26   48 1
    50   27   28 1
    51   27   49 1
    52   27   50 1
    53   28   29 1
    54   28   51 1
    55   28   52 1
    56   29   53 1
    57   29   54 1
    58   30   55 1
    59   30   56 1
    60   30   57 1
@<TRIPOS>MOLECULE
ZINC03006933
   60    62     0     0     0
SMALL
USER_CHARGES
8-[4-(butyl-methyl-sulfamoyl)benzoyl]amino-4-methyl-7-thia-4-azabicyclo[4.3.0]nona-8,10-diene-9-carboxamide
@<TRIPOS>ATOM
      1 C1         -5.6802    0.6337   -1.3588 C.3       1 <0>        -0.1532
      2 C2         -4.2959    0.3265   -1.9336 C.3       1 <0>        -0.1252
      3 C3         -3.2670    1.2798   -1.3225 C.3       1 <0>        -0.1442
      4 C4         -1.8827    0.9727   -1.8973 C.3       1 <0>         0.1078
      5 N1         -0.8975    1.8855   -1.3122 N.pl3     1 <0>        -0.9961
      6 C5         -0.6910    3.2129   -1.8967 C.3       1 <0>         0.0892
      7 S1         -0.0172    1.4168    0.0098 S.o2      1 <0>         2.6850
      8 O1          0.0021   -0.0041    0.0020 O.2       1 <0>        -0.9425
      9 O2          1.1718    2.1948    0.0027 O.2       1 <0>        -0.9435
     10 C6         -0.9267    1.9002    1.4394 C.ar      1 <0>        -0.6436
     11 C7         -0.7145    3.1464    2.0018 C.ar      1 <0>        -0.0229
     12 C8         -1.4267    3.5331    3.1182 C.ar      1 <0>        -0.1029
     13 C9         -2.3559    2.6599    3.6865 C.ar      1 <0>        -0.0932
     14 C10        -2.5613    1.4019    3.1171 C.ar      1 <0>        -0.0670
     15 C11        -1.8459    1.0297    1.9979 C.ar      1 <0>        -0.0219
     16 C12        -3.1192    3.0655    4.8853 C.2       1 <0>         0.5618
     17 O3         -3.9279    2.3032    5.3777 O.2       1 <0>        -0.4816
     18 N2         -2.9185    4.2807    5.4326 N.am      1 <0>        -0.6154
     19 C13        -3.6340    4.6610    6.5564 C.2       1 <0>         0.1020
     20 C14        -3.5679    5.8587    7.2569 C.2       1 <0>        -0.2359
     21 C15        -4.4332    6.0062    8.4117 C.2       1 <0>        -0.0391
     22 C16        -5.2215    4.9411    8.6831 C.2       1 <0>        -0.3194
     23 S2         -4.8339    3.7606    7.4244 S.3       1 <0>         0.3325
     24 C17        -6.2008    4.8245    9.8089 C.3       1 <0>         0.1087
     25 C18        -5.7970    7.1959   10.0992 C.3       1 <0>         0.0020
     26 C19        -4.4960    7.2482    9.2930 C.3       1 <0>        -0.0912
     27 C20        -6.9471    5.9472   11.8263 C.3       1 <0>        -0.0411
     28 C21        -2.6589    6.9325    6.8447 C.2       1 <0>         0.5749
     29 O4         -3.0360    7.7802    6.0569 O.2       1 <0>        -0.5203
     30 N3         -1.4056    6.9810    7.3381 N.am      1 <0>        -0.8443
     31 H1         -5.6615    0.5031   -0.2768 H         1 <0>         0.0521
     32 H2         -5.9520    1.6623   -1.5959 H         1 <0>         0.0533
     33 H3         -6.4132   -0.0455   -1.7941 H         1 <0>         0.0580
     34 H4         -4.3146    0.4572   -3.0156 H         1 <0>         0.0678
     35 H5         -4.0241   -0.7020   -1.6964 H         1 <0>         0.0678
     36 H6         -3.2483    1.1492   -0.2405 H         1 <0>         0.0603
     37 H7         -3.5388    2.3084   -1.5597 H         1 <0>         0.0700
     38 H8         -1.9014    1.1033   -2.9793 H         1 <0>         0.0918
     39 H9         -1.6109   -0.0559   -1.6602 H         1 <0>         0.0975
     40 H10         0.0846    3.1569   -2.6605 H         1 <0>         0.0676
     41 H11        -1.6207    3.5599   -2.3476 H         1 <0>         0.0780
     42 H12        -0.3833    3.9094   -1.1167 H         1 <0>         0.0711
     43 H13         0.0076    3.8194    1.5636 H         1 <0>         0.1534
     44 H14        -1.2631    4.5077    3.5539 H         1 <0>         0.1345
     45 H15        -3.2789    0.7218    3.5516 H         1 <0>         0.1530
     46 H16        -2.0038    0.0568    1.5563 H         1 <0>         0.1556
     47 H17        -2.2732    4.8890    5.0397 H         1 <0>         0.4268
     48 H18        -6.0912    3.8538   10.2925 H         1 <0>         0.1427
     49 H19        -7.2156    4.9327    9.4261 H         1 <0>         0.1449
     50 H20        -5.7947    7.9943   10.8412 H         1 <0>         0.1389
     51 H21        -6.6444    7.3297    9.4269 H         1 <0>         0.1351
     52 H22        -3.6430    7.2614    9.9715 H         1 <0>         0.1070
     53 H23        -4.4842    8.1425    8.6699 H         1 <0>         0.1249
     54 H24        -7.9088    6.1981   11.3789 H         1 <0>         0.1256
     55 H25        -7.0157    4.9746   12.3135 H         1 <0>         0.1258
     56 H26        -6.6804    6.7047   12.5632 H         1 <0>         0.1257
     57 H27        -1.1051    6.3055    7.9660 H         1 <0>         0.4047
     58 H28        -0.8042    7.6915    7.0654 H         1 <0>         0.4109
     59 N4         -5.8934    5.8935   10.7901 N.4       1 <0>        -0.3960
     60 H29        -4.9938    5.6862   11.2394 H         1 <0>         0.4324
@<TRIPOS>BOND
     1    1    2 1
     2    1   31 1
     3    1   32 1
     4    1   33 1
     5    2    3 1
     6    2   34 1
     7    2   35 1
     8    3    4 1
     9    3   36 1
    10    3   37 1
    11    4    5 1
    12    4   38 1
    13    4   39 1
    14    5    6 1
    15    5    7 1
    16    6   40 1
    17    6   41 1
    18    6   42 1
    19    7    8 2
    20    7    9 2
    21    7   10 1
    22   10   15 ar
    23   10   11 ar
    24   11   12 ar
    25   11   43 1
    26   12   13 ar
    27   12   44 1
    28   13   14 ar
    29   13   16 1
    30   14   15 ar
    31   14   45 1
    32   15   46 1
    33   16   17 2
    34   16   18 am
    35   18   19 1
    36   18   47 1
    37   19   23 1
    38   19   20 2
    39   20   21 1
    40   20   28 1
    41   21   26 1
    42   21   22 2
    43   22   23 1
    44   22   24 1
    45   24   48 1
    46   24   49 1
    47   24   59 1
    48   25   26 1
    49   25   50 1
    50   25   51 1
    51   25   59 1
    52   26   52 1
    53   26   53 1
    54   27   54 1
    55   27   55 1
    56   27   56 1
    57   27   59 1
    58   28   29 2
    59   28   30 am
    60   30   57 1
    61   30   58 1
    62   59   60 1
@<TRIPOS>MOLECULE
ZINC09410222
   67    70     0     0     0
SMALL
USER_CHARGES
4-ethoxy-N-[(1S)-3-methylsulfanyl-1-(spiro[1,5,6,7-tetrahydroimidazo[4,5-c]pyridine-4,4'-piperidine]-1'-carbonyl)propyl]benzamide
@<TRIPOS>ATOM
      1 C1          7.4154    3.7481    1.6318 C.3       1 <0>        -0.1551
      2 C2          6.1712    2.8921    1.3867 C.3       1 <0>         0.0514
      3 O1          5.0250    3.7384    1.2765 O.3       1 <0>        -0.3086
      4 C3          3.8307    3.1325    1.0566 C.ar      1 <0>         0.1687
      5 C4          2.6764    3.8979    0.9394 C.ar      1 <0>        -0.1618
      6 C5          1.4626    3.2869    0.7162 C.ar      1 <0>        -0.0134
      7 C6          1.3925    1.8956    0.6071 C.ar      1 <0>        -0.1887
      8 C7          2.5545    1.1294    0.7303 C.ar      1 <0>        -0.0385
      9 C8          3.7652    1.7483    0.9486 C.ar      1 <0>        -0.2185
     10 C9          0.0935    1.2366    0.3684 C.2       1 <0>         0.5742
     11 O2         -0.9166    1.9049    0.2615 O.2       1 <0>        -0.5339
     12 N1          0.0279   -0.1054    0.2634 N.am      1 <0>        -0.7164
     13 C10        -1.2614   -0.7595    0.0265 C.3       1 <0>         0.1344
     14 H1         -2.0475   -0.2121    0.5465 H         1 <0>         0.1184
     15 C11        -1.5575   -0.7744   -1.4745 C.3       1 <0>        -0.1136
     16 C12        -1.7451    0.6604   -1.9715 C.3       1 <0>        -0.0783
     17 S1         -2.0962    0.6428   -3.7511 S.3       1 <0>        -0.2760
     18 C13        -2.2897    2.3953   -4.1777 C.3       1 <0>        -0.1144
     19 C14        -1.2091   -2.1745    0.5423 C.2       1 <0>         0.5257
     20 O3         -0.1414   -2.6823    0.8127 O.2       1 <0>        -0.5062
     21 N2         -2.3488   -2.8757    0.7030 N.am      1 <0>        -0.6190
     22 C15        -3.6378   -2.3180    0.2716 C.3       1 <0>         0.0832
     23 C16        -4.6160   -2.3618    1.4439 C.3       1 <0>        -0.1451
     24 C17        -4.6957   -3.7892    1.9865 C.3       1 <0>         0.1694
     25 C18        -3.3196   -4.2316    2.4846 C.3       1 <0>        -0.1417
     26 C19        -2.3263   -4.2098    1.3183 C.3       1 <0>         0.0957
     27 C20        -5.6888   -3.8462    3.1187 C.2       1 <0>        -0.0279
     28 C21        -6.9366   -4.3518    2.9846 C.2       1 <0>        -0.0272
     29 N3         -7.5449   -4.2446    4.1942 N.pl3     1 <0>        -0.5434
     30 H2         -8.4756   -4.5325    4.4198 H         1 <0>         0.4414
     31 C22        -6.6517   -3.6738    5.0365 C.2       1 <0>         0.2182
     32 N4         -5.5441   -3.4397    4.3807 N.2       1 <0>        -0.4568
     33 C23        -7.4721   -4.9105    1.6916 C.3       1 <0>        -0.0679
     34 C24        -6.5508   -4.4407    0.5567 C.3       1 <0>         0.0010
     35 H3          8.2897    3.1026    1.7158 H         1 <0>         0.0825
     36 H4          7.5517    4.4378    0.7988 H         1 <0>         0.0689
     37 H5          7.2912    4.3138    2.5552 H         1 <0>         0.0687
     38 H6          6.0348    2.2025    2.2197 H         1 <0>         0.0662
     39 H7          6.2954    2.3265    0.4633 H         1 <0>         0.0665
     40 H8          2.7314    4.9732    1.0239 H         1 <0>         0.1417
     41 H9          0.5662    3.8823    0.6253 H         1 <0>         0.1440
     42 H10         2.5038    0.0535    0.6510 H         1 <0>         0.1287
     43 H11         4.6643    1.1571    1.0402 H         1 <0>         0.1371
     44 H12         0.8344   -0.6383    0.3447 H         1 <0>         0.4127
     45 H13        -0.7247   -1.2365   -2.0046 H         1 <0>         0.0878
     46 H14        -2.4676   -1.3449   -1.6596 H         1 <0>         0.0847
     47 H15        -2.5779    1.1226   -1.4414 H         1 <0>         0.0894
     48 H16        -0.8350    1.2310   -1.7864 H         1 <0>         0.0907
     49 H17        -2.5061    2.4885   -5.2419 H         1 <0>         0.1043
     50 H18        -3.1110    2.8211   -3.6012 H         1 <0>         0.0783
     51 H19        -1.3681    2.9295   -3.9462 H         1 <0>         0.0789
     52 H20        -3.5003   -1.2854   -0.0492 H         1 <0>         0.1206
     53 H21        -4.0343   -2.9097   -0.5535 H         1 <0>         0.0756
     54 H22        -5.6032   -2.0449    1.1077 H         1 <0>         0.1043
     55 H23        -4.2675   -1.6926    2.2306 H         1 <0>         0.1230
     56 H24        -3.3862   -5.2425    2.8868 H         1 <0>         0.1038
     57 H25        -2.9791   -3.5513    3.2652 H         1 <0>         0.1249
     58 H26        -2.6138   -4.9579    0.5795 H         1 <0>         0.0694
     59 H27        -1.3232   -4.4258    1.6859 H         1 <0>         0.1231
     60 H28        -6.8251   -3.4482    6.0784 H         1 <0>         0.2248
     61 H29        -8.4838   -4.5420    1.5216 H         1 <0>         0.1243
     62 H30        -7.4788   -5.9996    1.7342 H         1 <0>         0.1088
     63 H31        -6.6938   -3.3728    0.3916 H         1 <0>         0.1376
     64 H32        -6.7936   -4.9848   -0.3561 H         1 <0>         0.1480
     65 N5         -5.1419   -4.7064    0.9148 N.4       1 <0>        -0.5181
     66 H33        -5.0537   -5.6757    1.2417 H         1 <0>         0.4353
     67 H34        -4.5514   -4.5697    0.0860 H         1 <0>         0.4347
@<TRIPOS>BOND
     1    1    2 1
     2    1   35 1
     3    1   36 1
     4    1   37 1
     5    2    3 1
     6    2   38 1
     7    2   39 1
     8    3    4 1
     9    4    9 ar
    10    4    5 ar
    11    5    6 ar
    12    5   40 1
    13    6    7 ar
    14    6   41 1
    15    7    8 ar
    16    7   10 1
    17    8    9 ar
    18    8   42 1
    19    9   43 1
    20   10   11 2
    21   10   12 am
    22   12   13 1
    23   12   44 1
    24   13   14 1
    25   13   15 1
    26   13   19 1
    27   15   16 1
    28   15   45 1
    29   15   46 1
    30   16   17 1
    31   16   47 1
    32   16   48 1
    33   17   18 1
    34   18   49 1
    35   18   50 1
    36   18   51 1
    37   19   20 2
    38   19   21 am
    39   21   26 1
    40   21   22 1
    41   22   23 1
    42   22   52 1
    43   22   53 1
    44   23   24 1
    45   23   54 1
    46   23   55 1
    47   24   25 1
    48   24   27 1
    49   24   65 1
    50   25   26 1
    51   25   56 1
    52   25   57 1
    53   26   58 1
    54   26   59 1
    55   27   32 1
    56   27   28 2
    57   28   29 1
    58   28   33 1
    59   29   30 1
    60   29   31 1
    61   31   32 2
    62   31   60 1
    63   33   34 1
    64   33   61 1
    65   33   62 1
    66   34   63 1
    67   34   64 1
    68   34   65 1
    69   65   66 1
    70   65   67 1
@<TRIPOS>MOLECULE
ZINC02927403
   58    61     0     0     0
SMALL
USER_CHARGES
N-(4-ethoxyphenyl)-2-[[4-imino-5-(4-methoxyphenyl)-3-methyl-1H-pyrazolo[5,4-d]pyrimidin-6-yl]sulfanyl]acetamide
@<TRIPOS>ATOM
      1 C1        -12.5766    7.7249   10.6273 C.3       1 <0>        -0.1565
      2 C2        -11.2300    7.3096   10.0317 C.3       1 <0>         0.0519
      3 O1        -11.4318    6.2585    9.0848 O.3       1 <0>        -0.3140
      4 C3        -10.3274    5.7707    8.4594 C.ar      1 <0>         0.1266
      5 C4        -10.4520    4.7496    7.5285 C.ar      1 <0>        -0.1353
      6 C5         -9.3308    4.2534    6.8932 C.ar      1 <0>        -0.0780
      7 C6         -8.0786    4.7769    7.1860 C.ar      1 <0>         0.0978
      8 C7         -7.9540    5.7956    8.1213 C.ar      1 <0>        -0.0962
      9 C8         -9.0767    6.2944    8.7520 C.ar      1 <0>        -0.1917
     10 N1         -6.9405    4.2736    6.5422 N.am      1 <0>        -0.6687
     11 C9         -7.0153    3.8713    5.2581 C.2       1 <0>         0.5325
     12 O2         -8.0845    3.8660    4.6855 O.2       1 <0>        -0.5128
     13 C10        -5.7703    3.4280    4.5336 C.3       1 <0>        -0.1676
     14 S1         -6.1951    2.9522    2.8398 S.3       1 <0>         0.1582
     15 C11        -4.6026    2.4917    2.2429 C.2       1 <0>         0.3772
     16 N2         -3.5780    2.5774    3.0561 N.2       1 <0>        -0.4926
     17 C12        -2.3326    2.2511    2.6792 C.2       1 <0>         0.3323
     18 C13        -2.0998    1.7968    1.3739 C.2       1 <0>        -0.3441
     19 C14        -0.7253    1.5235    1.2633 C.2       1 <0>         0.1905
     20 N3         -0.1575    1.8034    2.4048 N.pl3     1 <0>        -0.3816
     21 N4         -1.1269    2.2523    3.3101 N.2       1 <0>        -0.2561
     22 H1          0.9275    1.6696    2.5268 H         1 <0>         0.5013
     23 C15        -0.0215    1.0272    0.0268 C.3       1 <0>        -0.1365
     24 C16        -3.2422    1.7034    0.4550 C.cat     1 <0>         0.6043
     25 N5         -3.0903    1.2998   -0.7828 N.pl3     1 <0>        -0.7668
     26 N6         -4.4877    2.0547    0.9516 N.pl3     1 <0>        -0.4450
     27 C17        -5.6212    1.9788    0.1296 C.ar      1 <0>        -0.0149
     28 C18        -6.0625    0.7461   -0.3324 C.ar      1 <0>        -0.0600
     29 C19        -7.1816    0.6715   -1.1378 C.ar      1 <0>        -0.1927
     30 C20        -7.8591    1.8287   -1.4935 C.ar      1 <0>         0.1776
     31 C21        -7.4154    3.0611   -1.0363 C.ar      1 <0>        -0.1291
     32 C22        -6.2992    3.1366   -0.2271 C.ar      1 <0>        -0.0395
     33 O3         -8.9579    1.7551   -2.2908 O.3       1 <0>        -0.2997
     34 C23        -9.3585    0.4539   -2.7248 C.3       1 <0>         0.0145
     35 H2        -12.4213    8.5340   11.3562 H         1 <0>         0.0816
     36 H3        -13.0369    6.8617   11.1302 H         1 <0>         0.0684
     37 H4        -13.2398    8.0776    9.8237 H         1 <0>         0.0682
     38 H5        -10.7697    8.1728    9.5287 H         1 <0>         0.0636
     39 H6        -10.5667    6.9569   10.8352 H         1 <0>         0.0641
     40 H7        -11.4261    4.3425    7.3008 H         1 <0>         0.1362
     41 H8         -9.4279    3.4586    6.1686 H         1 <0>         0.1443
     42 H9         -6.9798    6.2004    8.3526 H         1 <0>         0.1302
     43 H10        -8.9804    7.0897    9.4763 H         1 <0>         0.1341
     44 H11        -5.9860    4.2068    7.0848 H         1 <0>         0.4400
     45 H12        -5.0451    4.2547    4.5113 H         1 <0>         0.1418
     46 H13        -5.3288    2.5669    5.0566 H         1 <0>         0.1413
     47 H14         1.0507    0.9043    0.2396 H         1 <0>         0.1077
     48 H15        -0.1527    1.7555   -0.7871 H         1 <0>         0.1078
     49 H16        -0.4487    0.0594   -0.2748 H         1 <0>         0.1071
     50 H17        -3.9612    1.2382   -1.4519 H         1 <0>         0.4622
     51 H18        -5.5327   -0.1545   -0.0593 H         1 <0>         0.1395
     52 H19        -7.5273   -0.2876   -1.4943 H         1 <0>         0.1517
     53 H20        -7.9430    3.9617   -1.3139 H         1 <0>         0.1569
     54 H21        -5.9536    4.0961    0.1282 H         1 <0>         0.1494
     55 H22       -10.2538    0.5382   -3.3582 H         1 <0>         0.1154
     56 H23        -9.5867   -0.1708   -1.8486 H         1 <0>         0.0666
     57 H24        -8.5433   -0.0073   -3.3016 H         1 <0>         0.0647
     58 H25        -2.0920    1.0227   -1.1524 H         1 <0>         0.4719
@<TRIPOS>BOND
     1    1    2 1
     2    1   35 1
     3    1   36 1
     4    1   37 1
     5    2    3 1
     6    2   38 1
     7    2   39 1
     8    3    4 1
     9    4    9 ar
    10    4    5 ar
    11    5    6 ar
    12    5   40 1
    13    6    7 ar
    14    6   41 1
    15    7    8 ar
    16    7   10 1
    17    8    9 ar
    18    8   42 1
    19    9   43 1
    20   10   11 am
    21   10   44 1
    22   11   12 2
    23   11   13 1
    24   13   14 1
    25   13   45 1
    26   13   46 1
    27   14   15 1
    28   15   26 1
    29   15   16 2
    30   16   17 1
    31   17   18 1
    32   17   21 2
    33   18   24 1
    34   18   19 2
    35   19   23 1
    36   19   20 1
    37   20   22 1
    38   20   21 1
    39   23   47 1
    40   23   48 1
    41   23   49 1
    42   24   25 2
    43   24   26 1
    44   25   50 1
    45   25   58 1
    46   26   27 1
    47   27   32 ar
    48   27   28 ar
    49   28   29 ar
    50   28   51 1
    51   29   30 ar
    52   29   52 1
    53   30   31 ar
    54   30   33 1
    55   31   32 ar
    56   31   53 1
    57   32   54 1
    58   33   34 1
    59   34   55 1
    60   34   56 1
    61   34   57 1
@<TRIPOS>MOLECULE
ZINC23386246
   55    57     0     0     0
SMALL
USER_CHARGES

@<TRIPOS>ATOM
      1 C1          0.1200    4.6223   -1.0258 C.2       1 <0>        -0.2157
      2 C2          1.4568    4.8839   -0.9358 C.2       1 <0>         0.1014
      3 N1          2.3240    3.8858   -0.7871 N.2       1 <0>        -0.5330
      4 C3          1.9219    2.6311   -0.7233 C.2       1 <0>         0.3673
      5 N2          0.6010    2.3102   -0.8079 N.am      1 <0>        -0.6080
      6 H1          0.3213    1.3827   -0.7593 H         1 <0>         0.4305
      7 C4         -0.3177    3.2880   -0.9588 C.2       1 <0>         0.5349
      8 O1         -1.5053    3.0187   -1.0356 O.2       1 <0>        -0.4985
      9 S1          3.1138    1.3485   -0.5258 S.3       1 <0>         0.1037
     10 C5          4.6989    2.2284   -0.4631 C.3       1 <0>        -0.1541
     11 C6          5.8189    1.2344   -0.2939 C.2       1 <0>         0.5427
     12 O2          5.5721    0.0491   -0.2226 O.2       1 <0>        -0.5027
     13 N3          7.0948    1.6626   -0.2217 N.am      1 <0>        -0.6148
     14 C7          7.4090    3.0958   -0.3003 C.3       1 <0>         0.0997
     15 C8          8.4466    3.3131   -1.4062 C.3       1 <0>        -0.1415
     16 C9          9.6595    2.4170   -1.1454 C.3       1 <0>         0.0364
     17 C10         9.2266    0.9494   -1.1710 C.3       1 <0>        -0.1556
     18 C11         8.1974    0.7057   -0.0568 C.3       1 <0>         0.1135
     19 C12        10.2447    2.7445    0.2042 C.2       1 <0>         0.5125
     20 O3          9.9634    3.7906    0.7495 O.2       1 <0>        -0.4800
     21 N4         11.0806    1.8747    0.8052 N.am      1 <0>        -0.8412
     22 N5         10.6707    2.6472   -2.1859 N.4       1 <0>        -0.3700
     23 C13        11.0956    4.0517   -2.1509 C.3       1 <0>        -0.0181
     24 C14        12.0887    4.3164   -3.2846 C.3       1 <0>        -0.1427
     25 C15        13.3090    3.4078   -3.1095 C.3       1 <0>        -0.1410
     26 C16        12.8455    1.9487   -3.0728 C.3       1 <0>        -0.1407
     27 C17        11.8244    1.7717   -1.9470 C.3       1 <0>        -0.0339
     28 C18         1.9512    6.3058   -1.0054 C.3       1 <0>         0.5277
     29 F1          0.8630    7.1708   -1.1624 F         1 <0>        -0.1603
     30 F2          2.6311    6.6214    0.1758 F         1 <0>        -0.1627
     31 F3          2.8186    6.4451   -2.0942 F         1 <0>        -0.1648
     32 H2         -0.5902    5.4276   -1.1422 H         1 <0>         0.1789
     33 H3          4.8430    2.7839   -1.3898 H         1 <0>         0.1367
     34 H4          4.6971    2.9206    0.3789 H         1 <0>         0.1387
     35 H5          6.5036    3.6561   -0.5335 H         1 <0>         0.1145
     36 H6          7.8150    3.4337    0.6531 H         1 <0>         0.1018
     37 H7          8.0080    3.0598   -2.3714 H         1 <0>         0.1062
     38 H8          8.7598    4.3571   -1.4111 H         1 <0>         0.1165
     39 H9          8.7807    0.7184   -2.1384 H         1 <0>         0.1122
     40 H10        10.0950    0.3110   -1.0084 H         1 <0>         0.1055
     41 H11         8.6663    0.8527    0.9161 H         1 <0>         0.0839
     42 H12         7.8123   -0.3115   -0.1292 H         1 <0>         0.1242
     43 H13        11.3619    1.0717    0.3395 H         1 <0>         0.4054
     44 H14        11.4010    2.0518    1.7035 H         1 <0>         0.4249
     45 H15        10.2257    4.6972   -2.2725 H         1 <0>         0.1382
     46 H16        11.5727    4.2628   -1.1939 H         1 <0>         0.1287
     47 H17        11.6126    4.1059   -4.2422 H         1 <0>         0.0908
     48 H18        12.4044    5.3593   -3.2558 H         1 <0>         0.1161
     49 H19        13.9936    3.5519   -3.9453 H         1 <0>         0.0985
     50 H20        13.8150    3.6531   -2.1757 H         1 <0>         0.0820
     51 H21        12.3851    1.6890   -4.0260 H         1 <0>         0.0917
     52 H22        13.7021    1.2991   -2.8926 H         1 <0>         0.1163
     53 H23        12.2859    2.0314   -0.9943 H         1 <0>         0.1320
     54 H24        11.4925    0.7339   -1.9179 H         1 <0>         0.1362
     55 H25        10.2743    2.4402   -3.0903 H         1 <0>         0.4290
@<TRIPOS>BOND
     1    1    7 1
     2    1    2 2
     3    1   32 1
     4    2    3 1
     5    2   28 1
     6    3    4 2
     7    4    5 1
     8    4    9 1
     9    5    6 1
    10    5    7 am
    11    7    8 2
    12    9   10 1
    13   10   11 1
    14   10   33 1
    15   10   34 1
    16   11   12 2
    17   11   13 am
    18   13   18 1
    19   13   14 1
    20   14   15 1
    21   14   35 1
    22   14   36 1
    23   15   16 1
    24   15   37 1
    25   15   38 1
    26   16   17 1
    27   16   19 1
    28   16   22 1
    29   17   18 1
    30   17   39 1
    31   17   40 1
    32   18   41 1
    33   18   42 1
    34   19   20 2
    35   19   21 am
    36   21   43 1
    37   21   44 1
    38   22   27 1
    39   22   23 1
    40   22   55 1
    41   23   24 1
    42   23   45 1
    43   23   46 1
    44   24   25 1
    45   24   47 1
    46   24   48 1
    47   25   26 1
    48   25   49 1
    49   25   50 1
    50   26   27 1
    51   26   51 1
    52   26   52 1
    53   27   53 1
    54   27   54 1
    55   28   29 1
    56   28   30 1
    57   28   31 1
@<TRIPOS>MOLECULE
ZINC45486298
   58    61     0     0     0
SMALL
USER_CHARGES

@<TRIPOS>ATOM
      1 C1          0.2346    0.9707   -0.1271 C.3       1 <0>        -0.1803
      2 C2          0.1443   -0.5459    0.0533 C.3       1 <0>         0.1313
      3 H1          0.6586   -1.0410   -0.7705 H         1 <0>         0.1506
      4 C3         -1.3032   -0.9650    0.0662 C.2       1 <0>         0.1200
      5 N1         -2.1479   -0.7947    1.0437 N.2       1 <0>        -0.2482
      6 N2         -3.2981   -1.2695    0.7225 N.2       1 <0>        -0.2749
      7 C4         -3.2513   -1.7739   -0.4888 C.2       1 <0>         0.1871
      8 N3         -1.9765   -1.5903   -0.9495 N.pl3     1 <0>        -0.3947
      9 C5         -1.4646   -1.9669   -2.2001 C.ar      1 <0>         0.0744
     10 C6         -1.0360   -0.9974   -3.0963 C.ar      1 <0>        -0.0883
     11 C7         -0.5319   -1.3706   -4.3269 C.ar      1 <0>        -0.0928
     12 C8         -0.4545   -2.7098   -4.6668 C.ar      1 <0>        -0.0102
     13 C9         -0.8812   -3.6780   -3.7750 C.ar      1 <0>        -0.0898
     14 C10        -1.3807   -3.3099   -2.5411 C.ar      1 <0>        -0.0793
     15 Cl1         0.1785   -3.1758   -6.2147 Cl        1 <0>        -0.0322
     16 S1         -4.5806   -2.5360   -1.3588 S.3       1 <0>         0.1087
     17 C11        -5.9724   -2.4473   -0.1988 C.3       1 <0>        -0.1147
     18 H2         -6.1246   -1.4123    0.1076 H         1 <0>         0.1311
     19 C12        -5.6662   -3.3036    1.0317 C.3       1 <0>        -0.1474
     20 C13        -7.2197   -2.9610   -0.8705 C.2       1 <0>         0.5375
     21 O1         -7.1332   -3.7422   -1.7944 O.2       1 <0>        -0.4976
     22 N4         -8.4315   -2.5525   -0.4447 N.am      1 <0>        -0.6563
     23 C14        -9.5852   -2.9418   -1.1374 C.ar      1 <0>         0.1480
     24 C15       -10.7716   -3.1547   -0.4446 C.ar      1 <0>        -0.1251
     25 C16       -11.9118   -3.5384   -1.1213 C.ar      1 <0>        -0.0812
     26 C17       -11.8749   -3.7124   -2.4966 C.ar      1 <0>         0.0831
     27 C18       -10.6848   -3.4994   -3.1953 C.ar      1 <0>         0.1115
     28 C19        -9.5430   -3.1086   -2.5135 C.ar      1 <0>        -0.1067
     29 N5        -10.9563   -3.7481   -4.5387 N.am      1 <0>        -0.6404
     30 H3        -10.3202   -3.6816   -5.2679 H         1 <0>         0.4373
     31 C20       -12.2517   -4.0964   -4.6529 C.2       1 <0>         0.6852
     32 O2        -12.8119   -4.3793   -5.6955 O.2       1 <0>        -0.5475
     33 N6        -12.8335   -4.0844   -3.4388 N.am      1 <0>        -0.6405
     34 H4        -13.7609   -4.2982   -3.2514 H         1 <0>         0.4385
     35 N7          0.7757   -0.9264    1.3239 N.4       1 <0>        -0.3809
     36 C21         0.6890   -2.3825    1.4971 C.3       1 <0>        -0.0483
     37 C22         2.1867   -0.5179    1.3113 C.3       1 <0>        -0.0520
     38 H5          1.2816    1.2738   -0.1365 H         1 <0>         0.1005
     39 H6         -0.2338    1.2530   -1.0700 H         1 <0>         0.1055
     40 H7         -0.2796    1.4658    0.6966 H         1 <0>         0.0954
     41 H8         -1.0969    0.0479   -2.8317 H         1 <0>         0.1421
     42 H9         -0.1982   -0.6167   -5.0245 H         1 <0>         0.1543
     43 H10        -0.8198   -4.7226   -4.0425 H         1 <0>         0.1553
     44 H11        -1.7098   -4.0661   -1.8437 H         1 <0>         0.1462
     45 H12        -5.5140   -4.3385    0.7253 H         1 <0>         0.0780
     46 H13        -4.7640   -2.9320    1.5175 H         1 <0>         0.0850
     47 H14        -6.5025   -3.2502    1.7287 H         1 <0>         0.0825
     48 H15        -8.5047   -1.9889    0.3413 H         1 <0>         0.4182
     49 H16       -10.8011   -3.0197    0.6265 H         1 <0>         0.1409
     50 H17       -12.8318   -3.7033   -0.5801 H         1 <0>         0.1418
     51 H18        -8.6222   -2.9385   -3.0518 H         1 <0>         0.1426
     52 H19         1.2032   -2.8776    0.6734 H         1 <0>         0.1224
     53 H20         1.1574   -2.6648    2.4400 H         1 <0>         0.1338
     54 H21        -0.3580   -2.6857    1.5065 H         1 <0>         0.1159
     55 H22         2.2510    0.5626    1.1828 H         1 <0>         0.1303
     56 H23         2.6551   -0.8001    2.2542 H         1 <0>         0.1333
     57 H24         2.7009   -1.0130    0.4876 H         1 <0>         0.1251
     58 H25         0.2996   -0.4681    2.0865 H         1 <0>         0.4361
@<TRIPOS>BOND
     1    1    2 1
     2    1   38 1
     3    1   39 1
     4    1   40 1
     5    2    3 1
     6    2    4 1
     7    2   35 1
     8    4    8 1
     9    4    5 2
    10    5    6 1
    11    6    7 2
    12    7    8 1
    13    7   16 1
    14    8    9 1
    15    9   14 ar
    16    9   10 ar
    17   10   11 ar
    18   10   41 1
    19   11   12 ar
    20   11   42 1
    21   12   13 ar
    22   12   15 1
    23   13   14 ar
    24   13   43 1
    25   14   44 1
    26   16   17 1
    27   17   18 1
    28   17   19 1
    29   17   20 1
    30   19   45 1
    31   19   46 1
    32   19   47 1
    33   20   21 2
    34   20   22 am
    35   22   23 1
    36   22   48 1
    37   23   28 ar
    38   23   24 ar
    39   24   25 ar
    40   24   49 1
    41   25   26 ar
    42   25   50 1
    43   26   33 1
    44   26   27 ar
    45   27   28 ar
    46   27   29 1
    47   28   51 1
    48   29   30 1
    49   29   31 am
    50   31   32 2
    51   31   33 am
    52   33   34 1
    53   35   36 1
    54   35   37 1
    55   35   58 1
    56   36   52 1
    57   36   53 1
    58   36   54 1
    59   37   55 1
    60   37   56 1
    61   37   57 1
@<TRIPOS>MOLECULE
ZINC67285626
   71    74     0     0     0
SMALL
USER_CHARGES

@<TRIPOS>ATOM
      1 C1          0.1760    1.5100    0.0883 C.3       1 <0>        -0.1536
      2 C2          0.1629   -0.0199    0.0767 C.3       1 <0>         0.0531
      3 O1          0.9171   -0.4943   -1.0405 O.3       1 <0>        -0.3033
      4 C3          1.0059   -1.8422   -1.1980 C.ar      1 <0>         0.1158
      5 C4          0.3759   -2.6891   -0.3002 C.ar      1 <0>        -0.1760
      6 C5          0.4667   -4.0590   -0.4620 C.ar      1 <0>        -0.0778
      7 C6          1.1856   -4.5873   -1.5182 C.ar      1 <0>        -0.1163
      8 C7          1.8169   -3.7480   -2.4172 C.ar      1 <0>        -0.1057
      9 C8          1.7247   -2.3739   -2.2643 C.ar      1 <0>         0.0846
     10 O2          2.3400   -1.5467   -3.1512 O.3       1 <0>        -0.4864
     11 C9         -0.2190   -4.9786    0.5153 C.3       1 <0>         0.2455
     12 H1         -0.4075   -4.4136    1.4282 H         1 <0>         0.0937
     13 C10        -1.5578   -5.3729   -0.0748 C.2       1 <0>        -0.2491
     14 C11        -1.8008   -6.6886   -0.2583 C.2       1 <0>         0.2155
     15 N1         -0.8706   -7.6306    0.0769 N.am      1 <0>        -0.6386
     16 C12         0.3265   -7.3385    0.6008 C.2       1 <0>         0.7064
     17 O3          1.0892   -8.2468    0.8669 O.2       1 <0>        -0.5556
     18 N2          0.7132   -6.0709    0.8417 N.am      1 <0>        -0.7082
     19 C13        -3.1200   -7.1244   -0.8421 C.3       1 <0>         0.0778
     20 N3         -2.8911   -7.7691   -2.1421 N.3       1 <0>        -0.5368
     21 C14        -2.3700   -6.8074   -3.1220 C.3       1 <0>         0.0520
     22 C15        -2.0074   -7.5407   -4.4153 C.3       1 <0>        -0.1354
     23 C16        -3.2541   -8.2366   -4.9685 C.3       1 <0>         0.0225
     24 C17        -3.8048   -9.1968   -3.9105 C.3       1 <0>        -0.1360
     25 C18        -4.1154   -8.4155   -2.6318 C.3       1 <0>         0.0565
     26 N4         -2.8994   -8.9904   -6.1784 N.4       1 <0>        -0.3790
     27 C19        -2.3565   -8.0702   -7.1848 C.3       1 <0>        -0.0122
     28 C20        -1.9104   -8.8609   -8.4166 C.3       1 <0>        -0.1450
     29 C21        -3.1134   -9.6068   -9.0009 C.3       1 <0>        -0.1393
     30 C22        -3.7169  -10.5081   -7.9199 C.3       1 <0>        -0.1450
     31 C23        -4.0961   -9.6564   -6.7065 C.3       1 <0>        -0.0112
     32 C24        -2.5205   -4.3961   -0.4211 C.2       1 <0>         0.5355
     33 O4         -2.4206   -3.7887   -1.4707 O.2       1 <0>        -0.4775
     34 O5         -3.5498   -4.1379    0.4125 O.3       1 <0>        -0.3485
     35 C25        -4.4846   -3.1392   -0.0009 C.3       1 <0>         0.0307
     36 H2          1.2039    1.8639    0.1672 H         1 <0>         0.0688
     37 H3         -0.2673    1.8841   -0.8346 H         1 <0>         0.0681
     38 H4         -0.3993    1.8718    0.9404 H         1 <0>         0.0813
     39 H5          0.6061   -0.3941    0.9995 H         1 <0>         0.0629
     40 H6         -0.8650   -0.3739   -0.0022 H         1 <0>         0.0601
     41 H7         -0.1857   -2.2790    0.5261 H         1 <0>         0.1298
     42 H8          1.2545   -5.6581   -1.6410 H         1 <0>         0.1198
     43 H9          2.3782   -4.1632   -3.2411 H         1 <0>         0.1356
     44 H10         3.2481   -1.3175   -2.9105 H         1 <0>         0.3905
     45 H11        -1.0896   -8.5636   -0.0726 H         1 <0>         0.4315
     46 H12         1.5858   -5.8822    1.2211 H         1 <0>         0.4375
     47 H13        -3.6009   -7.8310   -0.1658 H         1 <0>         0.1162
     48 H14        -3.7631   -6.2545   -0.9762 H         1 <0>         0.0705
     49 H15        -3.1302   -6.0550   -3.3320 H         1 <0>         0.0534
     50 H16        -1.4813   -6.3227   -2.7179 H         1 <0>         0.1007
     51 H17        -1.6353   -6.8244   -5.1478 H         1 <0>         0.0954
     52 H18        -1.2373   -8.2840   -4.2086 H         1 <0>         0.0966
     53 H19        -4.0102   -7.4902   -5.2118 H         1 <0>         0.1341
     54 H20        -4.7169   -9.6636   -4.2823 H         1 <0>         0.0961
     55 H21        -3.0630   -9.9661   -3.6958 H         1 <0>         0.0983
     56 H22        -4.4943   -9.0987   -1.8717 H         1 <0>         0.1026
     57 H23        -4.8673   -7.6555   -2.8441 H         1 <0>         0.0518
     58 H24        -3.1251   -7.3529   -7.4728 H         1 <0>         0.1275
     59 H25        -1.5024   -7.5377   -6.7664 H         1 <0>         0.1316
     60 H26        -1.5092   -8.1756   -9.1633 H         1 <0>         0.1121
     61 H27        -1.1415   -9.5783   -8.1297 H         1 <0>         0.0876
     62 H28        -3.8612   -8.8875   -9.3349 H         1 <0>         0.0813
     63 H29        -2.7897  -10.2162   -9.8447 H         1 <0>         0.0943
     64 H30        -4.6071  -11.0004   -8.3116 H         1 <0>         0.1119
     65 H31        -2.9856  -11.2598   -7.6227 H         1 <0>         0.0875
     66 H32        -4.5263  -10.2950   -5.9350 H         1 <0>         0.1313
     67 H33        -4.8276   -8.9053   -7.0047 H         1 <0>         0.1271
     68 H34        -3.9671   -2.1887   -0.1305 H         1 <0>         0.0645
     69 H35        -4.9401   -3.4366   -0.9454 H         1 <0>         0.0597
     70 H36        -5.2594   -3.0305    0.7580 H         1 <0>         0.1078
     71 H37        -2.2033   -9.6839   -5.9494 H         1 <0>         0.4211
@<TRIPOS>BOND
     1    1    2 1
     2    1   36 1
     3    1   37 1
     4    1   38 1
     5    2    3 1
     6    2   39 1
     7    2   40 1
     8    3    4 1
     9    4    9 ar
    10    4    5 ar
    11    5    6 ar
    12    5   41 1
    13    6    7 ar
    14    6   11 1
    15    7    8 ar
    16    7   42 1
    17    8    9 ar
    18    8   43 1
    19    9   10 1
    20   10   44 1
    21   11   12 1
    22   11   18 1
    23   11   13 1
    24   13   14 2
    25   13   32 1
    26   14   15 1
    27   14   19 1
    28   15   16 am
    29   15   45 1
    30   16   17 2
    31   16   18 am
    32   18   46 1
    33   19   20 1
    34   19   47 1
    35   19   48 1
    36   20   25 1
    37   20   21 1
    38   21   22 1
    39   21   49 1
    40   21   50 1
    41   22   23 1
    42   22   51 1
    43   22   52 1
    44   23   24 1
    45   23   26 1
    46   23   53 1
    47   24   25 1
    48   24   54 1
    49   24   55 1
    50   25   56 1
    51   25   57 1
    52   26   31 1
    53   26   27 1
    54   26   71 1
    55   27   28 1
    56   27   58 1
    57   27   59 1
    58   28   29 1
    59   28   60 1
    60   28   61 1
    61   29   30 1
    62   29   62 1
    63   29   63 1
    64   30   31 1
    65   30   64 1
    66   30   65 1
    67   31   66 1
    68   31   67 1
    69   32   33 2
    70   32   34 1
    71   34   35 1
    72   35   68 1
    73   35   69 1
    74   35   70 1
@<TRIPOS>MOLECULE
ZINC13473992
   57    60     0     0     0
SMALL
USER_CHARGES
3-[[3,5-difluoro-4-methyl-6-[3-(morpholine-4-carbonyl)phenoxy]-2-pyridyl]oxy]benzamidine
@<TRIPOS>ATOM
      1 C1         -1.7676   -0.7217   -1.7568 C.3       1 <0>        -0.1240
      2 C2         -1.9817    0.2311   -0.6090 C.ar      1 <0>        -0.0343
      3 C3         -2.9928    0.0121    0.3155 C.ar      1 <0>         0.0557
      4 C4         -3.1585    0.9080    1.3641 C.ar      1 <0>         0.3059
      5 N1         -2.3717    1.9657    1.4802 N.ar      1 <0>        -0.5364
      6 C5         -1.4019    2.2074    0.6134 C.ar      1 <0>         0.3232
      7 C6         -1.1761    1.3498   -0.4564 C.ar      1 <0>         0.0583
      8 F1         -0.1839    1.6029   -1.3377 F         1 <0>        -0.0977
      9 O1         -0.6185    3.3049    0.7710 O.3       1 <0>        -0.2107
     10 C7         -0.9561    4.1959    1.7400 C.ar      1 <0>         0.0855
     11 C8         -2.2688    4.2707    2.1873 C.ar      1 <0>        -0.1305
     12 C9         -2.6179    5.1748    3.1731 C.ar      1 <0>        -0.1070
     13 C10        -1.6639    6.0093    3.7193 C.ar      1 <0>        -0.0740
     14 C11        -0.3422    5.9416    3.2761 C.ar      1 <0>        -0.1015
     15 C12         0.0099    5.0250    2.2849 C.ar      1 <0>        -0.0928
     16 C13         0.6824    6.8342    3.8591 C.2       1 <0>         0.5634
     17 O2          0.6622    7.0879    5.0476 O.2       1 <0>        -0.5255
     18 N2          1.6388    7.3664    3.0725 N.am      1 <0>        -0.6085
     19 C14         1.6250    7.1568    1.6160 C.3       1 <0>         0.0595
     20 C15         1.7698    8.5264    0.9334 C.3       1 <0>         0.0464
     21 O3          2.9137    9.1976    1.4670 O.3       1 <0>        -0.3747
     22 C16         2.8247    9.4850    2.8646 C.3       1 <0>         0.0469
     23 C17         2.7307    8.1691    3.6455 C.3       1 <0>         0.0754
     24 O4         -4.1412    0.6987    2.2771 O.3       1 <0>        -0.2133
     25 C18        -4.2180    1.5455    3.3372 C.ar      1 <0>         0.1024
     26 C19        -3.0653    2.1344    3.8401 C.ar      1 <0>        -0.0697
     27 C20        -3.1381    2.9960    4.9185 C.ar      1 <0>        -0.0861
     28 C21        -4.3573    3.2766    5.5019 C.ar      1 <0>        -0.0673
     29 C22        -5.5200    2.6900    5.0032 C.ar      1 <0>        -0.1365
     30 C23        -5.4465    1.8253    3.9123 C.ar      1 <0>        -0.0747
     31 C24        -6.8295    2.9891    5.6270 C.cat     1 <0>         0.6032
     32 N3         -6.9003    3.8481    6.7019 N.pl3     1 <0>        -0.7776
     33 F2         -3.8031   -1.0628    0.2004 F         1 <0>        -0.1013
     34 H1         -1.0647   -1.4990   -1.4575 H         1 <0>         0.1016
     35 H2         -1.3651   -0.1771   -2.6108 H         1 <0>         0.0949
     36 H3         -2.7184   -1.1780   -2.0323 H         1 <0>         0.0940
     37 H4         -3.0195    3.6203    1.7634 H         1 <0>         0.1596
     38 H5         -3.6401    5.2279    3.5171 H         1 <0>         0.1310
     39 H6         -1.9401    6.7143    4.4895 H         1 <0>         0.1388
     40 H7          1.0319    4.9649    1.9411 H         1 <0>         0.1470
     41 H8          2.4556    6.5113    1.3302 H         1 <0>         0.0860
     42 H9          0.6826    6.6957    1.3204 H         1 <0>         0.1019
     43 H10         0.8776    9.1244    1.1185 H         1 <0>         0.0581
     44 H11         1.8978    8.3859   -0.1399 H         1 <0>         0.1111
     45 H12         1.9363   10.0865    3.0567 H         1 <0>         0.0582
     46 H13         3.7120   10.0334    3.1808 H         1 <0>         0.1126
     47 H14         2.5210    8.3788    4.6943 H         1 <0>         0.1060
     48 H15         3.6707    7.6236    3.5611 H         1 <0>         0.0830
     49 H16        -2.1090    1.9183    3.3874 H         1 <0>         0.1648
     50 H17        -2.2385    3.4512    5.3056 H         1 <0>         0.1541
     51 H18        -4.4107    3.9504    6.3442 H         1 <0>         0.1437
     52 H19        -6.3443    1.3717    3.5192 H         1 <0>         0.1467
     53 H20        -8.8183    2.5737    5.5001 H         1 <0>         0.4457
     54 H21        -6.0925    4.2570    7.0501 H         1 <0>         0.4438
     55 H22        -7.7579    4.0442    7.1105 H         1 <0>         0.4329
     56 N4         -7.8940    2.3994    5.1053 N.pl3     1 <0>        -0.7579
     57 H23        -7.7891    1.7667    4.3035 H         1 <0>         0.4608
@<TRIPOS>BOND
     1    1    2 1
     2    1   34 1
     3    1   35 1
     4    1   36 1
     5    2    7 ar
     6    2    3 ar
     7    3    4 ar
     8    3   33 1
     9    4    5 ar
    10    4   24 1
    11    5    6 ar
    12    6    7 ar
    13    6    9 1
    14    7    8 1
    15    9   10 1
    16   10   15 ar
    17   10   11 ar
    18   11   12 ar
    19   11   37 1
    20   12   13 ar
    21   12   38 1
    22   13   14 ar
    23   13   39 1
    24   14   15 ar
    25   14   16 1
    26   15   40 1
    27   16   17 2
    28   16   18 am
    29   18   23 1
    30   18   19 1
    31   19   20 1
    32   19   41 1
    33   19   42 1
    34   20   21 1
    35   20   43 1
    36   20   44 1
    37   21   22 1
    38   22   23 1
    39   22   45 1
    40   22   46 1
    41   23   47 1
    42   23   48 1
    43   24   25 1
    44   25   30 ar
    45   25   26 ar
    46   26   27 ar
    47   26   49 1
    48   27   28 ar
    49   27   50 1
    50   28   29 ar
    51   28   51 1
    52   29   30 ar
    53   29   31 1
    54   30   52 1
    55   31   32 1
    56   31   56 2
    57   32   54 1
    58   32   55 1
    59   53   56 1
    60   56   57 1
@<TRIPOS>MOLECULE
ZINC39599355
   72    77     0     0     0
SMALL
USER_CHARGES

@<TRIPOS>ATOM
      1 C1          1.2234   -3.5368    7.0948 C.3       1 <0>         0.0266
      2 O1          1.5931   -4.4206    6.0345 O.3       1 <0>        -0.3187
      3 C2          2.7725   -4.1708    5.4053 C.ar      1 <0>         0.1084
      4 C3          3.5568   -3.0923    5.8054 C.ar      1 <0>        -0.1756
      5 C4          4.7542   -2.8253    5.1794 C.ar      1 <0>        -0.0859
      6 C5          5.1898   -3.6364    4.1373 C.ar      1 <0>         0.0635
      7 N1          6.3112   -3.6263    3.3347 N.pl3     1 <0>        -0.5924
      8 C6          6.2549   -4.6636    2.4446 C.2       1 <0>         0.0744
      9 C7          5.1263   -5.3661    2.6310 C.2       1 <0>        -0.1881
     10 C8          4.3997   -4.7267    3.7307 C.ar      1 <0>        -0.0603
     11 C9          3.1900   -4.9911    4.3761 C.ar      1 <0>        -0.1175
     12 C10         4.6894   -6.5824    1.8558 C.3       1 <0>        -0.0474
     13 C11         3.7560   -6.1557    0.7211 C.3       1 <0>         0.1207
     14 N2          3.3313   -7.3381   -0.0325 N.am      1 <0>        -0.7290
     15 C12         2.5003   -7.2037   -1.0851 C.2       1 <0>         0.5149
     16 O2          2.1041   -6.1039   -1.4084 O.2       1 <0>        -0.5187
     17 C13         2.0634   -8.4199   -1.8603 C.3       1 <0>        -0.1154
     18 H1          2.0414   -9.2952   -1.2110 H         1 <0>         0.1191
     19 C14         0.6734   -8.1842   -2.4926 C.3       1 <0>         0.1096
     20 N3          0.9626   -7.7183   -3.8694 N.am      1 <0>        -0.6192
     21 C15         2.1123   -8.5468   -4.3051 C.3       1 <0>         0.1084
     22 C16         3.0041   -8.6612   -3.0528 C.3       1 <0>        -0.0727
     23 C17         3.6186  -10.0550   -2.9675 C.3       1 <0>        -0.1337
     24 C18         4.5945  -10.2498   -4.1314 C.3       1 <0>        -0.0103
     25 N4          5.6442   -9.2256   -4.0690 N.4       1 <0>        -0.5043
     26 C19         5.0545   -7.8930   -4.2452 C.3       1 <0>        -0.0093
     27 C20         4.0982   -7.5985   -3.0861 C.3       1 <0>        -0.1457
     28 C21         0.3244   -6.7584   -4.5678 C.2       1 <0>         0.5583
     29 O3          0.6822   -6.4892   -5.6949 O.2       1 <0>        -0.5100
     30 C22        -0.8338   -6.0197   -3.9482 C.3       1 <0>        -0.0682
     31 H2         -0.4924   -5.5230   -3.0400 H         1 <0>         0.1251
     32 C23        -1.9393   -7.0346   -3.5812 C.3       1 <0>        -0.0821
     33 S1         -2.9822   -6.9125   -5.0929 S.3       1 <0>        -0.1424
     34 C24        -2.4764   -5.2967   -5.6395 C.ar      1 <0>        -0.0605
     35 C25        -1.3294   -4.9784   -4.9211 C.ar      1 <0>        -0.0983
     36 C26        -0.7515   -3.7315   -5.1721 C.ar      1 <0>        -0.0740
     37 C27        -1.2938   -2.8684   -6.0976 C.ar      1 <0>        -0.1195
     38 C28        -2.4297   -3.2124   -6.8072 C.ar      1 <0>        -0.0894
     39 C29        -3.0188   -4.4328   -6.5720 C.ar      1 <0>        -0.0864
     40 H3          1.1399   -2.5209    6.7086 H         1 <0>         0.0558
     41 H4          0.2646   -3.8478    7.5095 H         1 <0>         0.1019
     42 H5          1.9839   -3.5674    7.8751 H         1 <0>         0.0560
     43 H6          3.2231   -2.4589    6.6140 H         1 <0>         0.1347
     44 H7          5.3545   -1.9858    5.4976 H         1 <0>         0.1263
     45 H8          7.0071   -4.8846    1.7018 H         1 <0>         0.1683
     46 H9          7.0322   -2.9799    3.3924 H         1 <0>         0.4188
     47 H10         2.5826   -5.8298    4.0694 H         1 <0>         0.1280
     48 H11         5.5643   -7.0809    1.4386 H         1 <0>         0.0722
     49 H12         4.1634   -7.2675    2.5207 H         1 <0>         0.0785
     50 H13         2.8811   -5.6572    1.1383 H         1 <0>         0.0748
     51 H14         4.2819   -5.4707    0.0561 H         1 <0>         0.0692
     52 H15         3.6481   -8.2177    0.2260 H         1 <0>         0.3993
     53 H16         0.1047   -9.1137   -2.5176 H         1 <0>         0.0924
     54 H17         0.1289   -7.4192   -1.9391 H         1 <0>         0.0991
     55 H18         1.7724   -9.5333   -4.6203 H         1 <0>         0.0857
     56 H19         2.6523   -8.0533   -5.1131 H         1 <0>         0.0879
     57 H20         4.1529  -10.1600   -2.0233 H         1 <0>         0.0982
     58 H21         2.8295  -10.8048   -3.0250 H         1 <0>         0.1224
     59 H22         5.0477  -11.2388   -4.0636 H         1 <0>         0.1403
     60 H23         4.0564  -10.1612   -5.0751 H         1 <0>         0.1328
     61 H24         6.1049   -9.2723   -3.1725 H         1 <0>         0.4274
     62 H25         5.8468   -7.1446   -4.2614 H         1 <0>         0.1379
     63 H26         4.5054   -7.8605   -5.1862 H         1 <0>         0.1340
     64 H27         3.6472   -6.6162   -3.2272 H         1 <0>         0.1224
     65 H28         4.6499   -7.6146   -2.1462 H         1 <0>         0.0962
     66 H29        -1.5325   -8.0384   -3.4592 H         1 <0>         0.1177
     67 H30        -2.4882   -6.7205   -2.6934 H         1 <0>         0.1158
     68 H31         0.1360   -3.4394   -4.6303 H         1 <0>         0.1194
     69 H32        -0.8263   -1.9104   -6.2712 H         1 <0>         0.1298
     70 H33        -2.8475   -2.5325   -7.5349 H         1 <0>         0.1371
     71 H34        -3.9063   -4.7154   -7.1187 H         1 <0>         0.1316
     72 H35         6.3191   -9.3927   -4.8002 H         1 <0>         0.4342
@<TRIPOS>BOND
     1    1    2 1
     2    1   40 1
     3    1   41 1
     4    1   42 1
     5    2    3 1
     6    3    4 ar
     7    3   11 ar
     8    4    5 ar
     9    4   43 1
    10    5    6 ar
    11    5   44 1
    12    6    7 1
    13    6   10 ar
    14    7   46 1
    15    7    8 1
    16    8    9 2
    17    8   45 1
    18    9   10 1
    19    9   12 1
    20   10   11 ar
    21   11   47 1
    22   12   13 1
    23   12   48 1
    24   12   49 1
    25   13   14 1
    26   13   50 1
    27   13   51 1
    28   14   15 am
    29   14   52 1
    30   15   16 2
    31   15   17 1
    32   17   18 1
    33   17   22 1
    34   17   19 1
    35   19   20 1
    36   19   53 1
    37   19   54 1
    38   20   21 1
    39   20   28 am
    40   21   22 1
    41   21   55 1
    42   21   56 1
    43   22   27 1
    44   22   23 1
    45   23   24 1
    46   23   57 1
    47   23   58 1
    48   24   25 1
    49   24   59 1
    50   24   60 1
    51   25   26 1
    52   25   61 1
    53   25   72 1
    54   26   27 1
    55   26   62 1
    56   26   63 1
    57   27   64 1
    58   27   65 1
    59   28   29 2
    60   28   30 1
    61   30   31 1
    62   30   35 1
    63   30   32 1
    64   32   33 1
    65   32   66 1
    66   32   67 1
    67   33   34 1
    68   34   39 ar
    69   34   35 ar
    70   35   36 ar
    71   36   37 ar
    72   36   68 1
    73   37   38 ar
    74   37   69 1
    75   38   39 ar
    76   38   70 1
    77   39   71 1
@<TRIPOS>MOLECULE
ZINC39655979
   66    70     0     0     0
SMALL
USER_CHARGES

@<TRIPOS>ATOM
      1 C1         -3.1797    4.1897   -5.2436 C.3       1 <0>        -0.1130
      2 C2         -3.4475    2.7130   -5.3803 C.ar      1 <0>        -0.1049
      3 C3         -4.6005    2.1688   -4.8320 C.ar      1 <0>        -0.0942
      4 C4         -4.8642    0.8211   -4.9453 C.ar      1 <0>        -0.1236
      5 C5         -3.9678   -0.0042   -5.6157 C.ar      1 <0>         0.0907
      6 N1         -3.9449   -1.3530   -5.8915 N.pl3     1 <0>        -0.5930
      7 C6         -2.8134   -1.6649   -6.5950 C.2       1 <0>         0.0642
      8 C7         -2.0800   -0.5588   -6.7961 C.2       1 <0>        -0.1827
      9 C8         -2.8006    0.5525   -6.1702 C.ar      1 <0>        -0.0960
     10 C9         -2.5558    1.9214   -6.0481 C.ar      1 <0>        -0.0770
     11 C10        -0.7645   -0.4761   -7.5266 C.3       1 <0>        -0.0471
     12 C11         0.3843   -0.5647   -6.5200 C.3       1 <0>         0.1217
     13 N2          1.6632   -0.4842   -7.2302 N.am      1 <0>        -0.7303
     14 C12         2.8208   -0.5416   -6.5423 C.2       1 <0>         0.5123
     15 O1          2.8038   -0.6598   -5.3354 O.2       1 <0>        -0.5119
     16 C13         4.1362   -0.4588   -7.2729 C.3       1 <0>        -0.1157
     17 H1          4.0327    0.1489   -8.1718 H         1 <0>         0.1189
     18 C14         5.2282    0.1273   -6.3500 C.3       1 <0>         0.1022
     19 N3          5.9070   -1.0575   -5.7741 N.am      1 <0>        -0.6128
     20 C15         5.9843   -2.0209   -6.8983 C.3       1 <0>         0.1102
     21 C16         4.6380   -1.8672   -7.6335 C.3       1 <0>        -0.0733
     22 C17         4.8427   -1.9854   -9.1408 C.3       1 <0>        -0.1333
     23 C18         5.2853   -3.4113   -9.4810 C.3       1 <0>        -0.0104
     24 N4          4.2637   -4.3637   -9.0295 N.4       1 <0>        -0.5044
     25 C19         4.1395   -4.3092   -7.5678 C.3       1 <0>        -0.0094
     26 C20         3.6484   -2.9213   -7.1467 C.3       1 <0>        -0.1468
     27 C21         6.3537   -1.2218   -4.5132 C.2       1 <0>         0.5933
     28 O2          6.9793   -2.2206   -4.2153 O.2       1 <0>        -0.5041
     29 C22         6.0829   -0.1879   -3.4927 C.ar      1 <0>        -0.1120
     30 C23         6.0730    1.1625   -3.8480 C.ar      1 <0>        -0.0809
     31 C24         5.8198    2.1229   -2.8914 C.ar      1 <0>        -0.1063
     32 C25         5.5755    1.7523   -1.5805 C.ar      1 <0>        -0.0708
     33 C26         5.5838    0.4165   -1.2194 C.ar      1 <0>        -0.0379
     34 C27         5.8301   -0.5573   -2.1697 C.ar      1 <0>         0.0174
     35 Cl1         5.8328   -2.2335   -1.7181 Cl        1 <0>        -0.0191
     36 Cl2         5.2773   -0.0378    0.4278 Cl        1 <0>        -0.0319
     37 H2         -2.6148    4.3735   -4.3297 H         1 <0>         0.0691
     38 H3         -2.6041    4.5356   -6.1022 H         1 <0>         0.0643
     39 H4         -4.1264    4.7282   -5.2001 H         1 <0>         0.0671
     40 H5         -5.2978    2.8080   -4.3110 H         1 <0>         0.1280
     41 H6         -5.7639    0.4071   -4.5145 H         1 <0>         0.1225
     42 H7         -2.5496   -2.6545   -6.9377 H         1 <0>         0.1668
     43 H8         -4.6288   -1.9877   -5.6262 H         1 <0>         0.4184
     44 H9         -1.6629    2.3526   -6.4760 H         1 <0>         0.1184
     45 H10        -0.6904   -1.3003   -8.2360 H         1 <0>         0.0716
     46 H11        -0.7056    0.4711   -8.0627 H         1 <0>         0.0773
     47 H12         0.3102    0.2596   -5.8106 H         1 <0>         0.0739
     48 H13         0.3254   -1.5119   -5.9839 H         1 <0>         0.0689
     49 H14         1.6768   -0.3897   -8.1955 H         1 <0>         0.3985
     50 H15         5.9328    0.7256   -6.9275 H         1 <0>         0.0935
     51 H16         4.7763    0.7276   -5.5604 H         1 <0>         0.1065
     52 H17         6.8104   -1.7656   -7.5620 H         1 <0>         0.0873
     53 H18         6.0982   -3.0372   -6.5213 H         1 <0>         0.0892
     54 H19         3.9070   -1.7627   -9.6536 H         1 <0>         0.0983
     55 H20         5.6100   -1.2802   -9.4602 H         1 <0>         0.1224
     56 H21         5.4162   -3.5033  -10.5592 H         1 <0>         0.1403
     57 H22         6.2294   -3.6274   -8.9811 H         1 <0>         0.1331
     58 H23         3.3771   -4.1285   -9.4500 H         1 <0>         0.4274
     59 H24         3.4259   -5.0632   -7.2357 H         1 <0>         0.1382
     60 H25         5.1110   -4.5039   -7.1134 H         1 <0>         0.1344
     61 H26         3.5737   -2.8760   -6.0602 H         1 <0>         0.1228
     62 H27         2.6695   -2.7325   -7.5874 H         1 <0>         0.0968
     63 H28         6.2637    1.4542   -4.8702 H         1 <0>         0.1431
     64 H29         5.8124    3.1674   -3.1659 H         1 <0>         0.1486
     65 H30         5.3778    2.5092   -0.8359 H         1 <0>         0.1514
     66 H31         4.5285   -5.2964   -9.3087 H         1 <0>         0.4342
@<TRIPOS>BOND
     1    1   37 1
     2    1   38 1
     3    1   39 1
     4    1    2 1
     5    2    3 ar
     6    2   10 ar
     7    3    4 ar
     8    3   40 1
     9    4    5 ar
    10    4   41 1
    11    5    6 1
    12    5    9 ar
    13    6   43 1
    14    6    7 1
    15    7    8 2
    16    7   42 1
    17    8    9 1
    18    8   11 1
    19    9   10 ar
    20   10   44 1
    21   11   12 1
    22   11   45 1
    23   11   46 1
    24   12   13 1
    25   12   47 1
    26   12   48 1
    27   13   14 am
    28   13   49 1
    29   14   15 2
    30   14   16 1
    31   16   17 1
    32   16   21 1
    33   16   18 1
    34   18   19 1
    35   18   50 1
    36   18   51 1
    37   19   20 1
    38   19   27 am
    39   20   21 1
    40   20   52 1
    41   20   53 1
    42   21   26 1
    43   21   22 1
    44   22   23 1
    45   22   54 1
    46   22   55 1
    47   23   24 1
    48   23   56 1
    49   23   57 1
    50   24   25 1
    51   24   58 1
    52   24   66 1
    53   25   26 1
    54   25   59 1
    55   25   60 1
    56   26   61 1
    57   26   62 1
    58   27   28 2
    59   27   29 1
    60   29   34 ar
    61   29   30 ar
    62   30   31 ar
    63   30   63 1
    64   31   32 ar
    65   31   64 1
    66   32   33 ar
    67   32   65 1
    68   33   34 ar
    69   33   36 1
    70   34   35 1
@<TRIPOS>MOLECULE
ZINC44714451
   74    78     0     0     0
SMALL
USER_CHARGES

@<TRIPOS>ATOM
      1 C1          1.5318    1.7856    1.3666 C.3       1 <0>        -0.1556
      2 C2          1.8103    0.3067    1.6423 C.3       1 <0>         0.0525
      3 O1          0.7517   -0.4863    1.1014 O.3       1 <0>        -0.3088
      4 C3          0.8454   -1.8307    1.2612 C.ar      1 <0>         0.1661
      5 C4          1.9345   -2.3747    1.9319 C.ar      1 <0>        -0.2192
      6 C5          2.0333   -3.7383    2.0961 C.ar      1 <0>        -0.0513
      7 C6          1.0366   -4.5754    1.5878 C.ar      1 <0>        -0.1775
      8 C7         -0.0569   -4.0245    0.9144 C.ar      1 <0>        -0.0149
      9 C8         -0.1508   -2.6596    0.7586 C.ar      1 <0>        -0.1583
     10 C9          1.1388   -6.0376    1.7611 C.2       1 <0>         0.5997
     11 O2          0.5715   -6.7829    0.9858 O.2       1 <0>        -0.5316
     12 N1          1.8611   -6.5467    2.7788 N.am      1 <0>        -0.6154
     13 C10         2.5111   -5.8106    3.8886 C.3       1 <0>         0.1073
     14 C11         2.2846   -6.6995    5.1321 C.3       1 <0>        -0.1158
     15 H1          3.1607   -6.6759    5.7801 H         1 <0>         0.1162
     16 C12         2.0728   -8.1150    4.5693 C.3       1 <0>        -0.0718
     17 C13         2.1792   -7.9702    3.0443 C.3       1 <0>         0.1075
     18 C14         0.6888   -8.6329    4.9486 C.3       1 <0>        -0.1460
     19 C15         0.5235  -10.0630    4.4268 C.3       1 <0>        -0.0100
     20 N2          1.5647  -10.9205    5.0061 N.4       1 <0>        -0.5048
     21 C16         2.8891  -10.4707    4.5610 C.3       1 <0>        -0.0101
     22 C17         3.1543   -9.0576    5.0882 C.3       1 <0>        -0.1334
     23 C18         1.0623   -6.2442    5.8869 C.2       1 <0>         0.5131
     24 O3          0.1052   -5.8067    5.2840 O.2       1 <0>        -0.5130
     25 N3          1.0328   -6.3232    7.2321 N.am      1 <0>        -0.7300
     26 C19        -0.1554   -5.8806    7.9659 C.3       1 <0>         0.1211
     27 C20         0.0699   -6.0757    9.4666 C.3       1 <0>        -0.0504
     28 C21        -1.1523   -5.6204   10.2215 C.2       1 <0>        -0.1733
     29 C22        -1.3908   -4.3835   10.6840 C.2       1 <0>         0.1022
     30 N4         -2.6032   -4.3472   11.3178 N.pl3     1 <0>        -0.5844
     31 H2         -2.9910   -3.5610   11.7329 H         1 <0>         0.4217
     32 C23        -3.1907   -5.5897   11.2787 C.ar      1 <0>         0.1249
     33 C24        -2.3100   -6.4427   10.5849 C.ar      1 <0>        -0.1026
     34 C25        -2.6476   -7.7790   10.3848 C.ar      1 <0>        -0.0179
     35 C26        -3.8600   -8.2577   10.8732 C.ar      1 <0>        -0.0539
     36 C27        -4.7290   -7.3977   11.5593 C.ar      1 <0>        -0.0549
     37 C28        -4.3974   -6.0906   11.7621 C.ar      1 <0>        -0.1202
     38 C29        -4.2201   -9.6294   10.6743 C.1       1 <0>         0.2563
     39 N5         -4.5058  -10.7175   10.5165 N.1       1 <0>        -0.4211
     40 C30        -0.4606   -3.2080   10.5291 C.3       1 <0>        -0.1019
     41 H3          0.5890    2.0710    1.8333 H         1 <0>         0.0686
     42 H4          2.3392    2.3905    1.7792 H         1 <0>         0.0823
     43 H5          1.4687    1.9490    0.2907 H         1 <0>         0.0693
     44 H6          2.7530    0.0213    1.1756 H         1 <0>         0.0659
     45 H7          1.8734    0.1433    2.7182 H         1 <0>         0.0648
     46 H8          2.7045   -1.7271    2.3246 H         1 <0>         0.1356
     47 H9          2.8802   -4.1603    2.6168 H         1 <0>         0.1326
     48 H10        -0.8293   -4.6682    0.5201 H         1 <0>         0.1409
     49 H11        -0.9977   -2.2328    0.2419 H         1 <0>         0.1417
     50 H12         3.5772   -5.6938    3.6942 H         1 <0>         0.0904
     51 H13         2.0401   -4.8373    4.0264 H         1 <0>         0.1039
     52 H14         1.4571   -8.6201    2.5500 H         1 <0>         0.0892
     53 H15         3.1911   -8.2022    2.7121 H         1 <0>         0.0844
     54 H16         0.5827   -8.6268    6.0334 H         1 <0>         0.0936
     55 H17        -0.0736   -7.9930    4.5042 H         1 <0>         0.1266
     56 H18        -0.4583  -10.4419    4.7105 H         1 <0>         0.1382
     57 H19         0.6136  -10.0659    3.3405 H         1 <0>         0.1348
     58 H20         1.5157  -10.8732    6.0128 H         1 <0>         0.4273
     59 H21         3.6508  -11.1499    4.9437 H         1 <0>         0.1397
     60 H22         2.9231  -10.4641    3.4715 H         1 <0>         0.1328
     61 H23         4.1303   -8.7173    4.7420 H         1 <0>         0.1215
     62 H24         3.1369   -9.0666    6.1780 H         1 <0>         0.0977
     63 H25         1.7982   -6.6731    7.7143 H         1 <0>         0.3997
     64 H26        -0.3376   -4.8258    7.7600 H         1 <0>         0.0725
     65 H27        -1.0177   -6.4670    7.6487 H         1 <0>         0.0712
     66 H28         0.2521   -7.1305    9.6725 H         1 <0>         0.0759
     67 H29         0.9323   -5.4894    9.7838 H         1 <0>         0.0795
     68 H30        -1.9751   -8.4376    9.8554 H         1 <0>         0.1277
     69 H31        -5.6682   -7.7755   11.9357 H         1 <0>         0.1381
     70 H32        -5.0770   -5.4389   12.2912 H         1 <0>         0.1341
     71 H33        -0.6925   -2.6806    9.6038 H         1 <0>         0.0826
     72 H34        -0.5862   -2.5314   11.3743 H         1 <0>         0.0747
     73 H35         0.5699   -3.5620   10.4970 H         1 <0>         0.0872
     74 H36         1.4173  -11.8735    4.7093 H         1 <0>         0.4341
@<TRIPOS>BOND
     1    1    2 1
     2    1   41 1
     3    1   42 1
     4    1   43 1
     5    2    3 1
     6    2   44 1
     7    2   45 1
     8    3    4 1
     9    4    9 ar
    10    4    5 ar
    11    5    6 ar
    12    5   46 1
    13    6    7 ar
    14    6   47 1
    15    7    8 ar
    16    7   10 1
    17    8    9 ar
    18    8   48 1
    19    9   49 1
    20   10   11 2
    21   10   12 am
    22   12   17 1
    23   12   13 1
    24   13   14 1
    25   13   50 1
    26   13   51 1
    27   14   15 1
    28   14   16 1
    29   14   23 1
    30   16   22 1
    31   16   17 1
    32   16   18 1
    33   17   52 1
    34   17   53 1
    35   18   19 1
    36   18   54 1
    37   18   55 1
    38   19   20 1
    39   19   56 1
    40   19   57 1
    41   20   21 1
    42   20   58 1
    43   20   74 1
    44   21   22 1
    45   21   59 1
    46   21   60 1
    47   22   61 1
    48   22   62 1
    49   23   24 2
    50   23   25 am
    51   25   26 1
    52   25   63 1
    53   26   27 1
    54   26   64 1
    55   26   65 1
    56   27   28 1
    57   27   66 1
    58   27   67 1
    59   28   33 1
    60   28   29 2
    61   29   30 1
    62   29   40 1
    63   30   31 1
    64   30   32 1
    65   32   37 ar
    66   32   33 ar
    67   33   34 ar
    68   34   35 ar
    69   34   68 1
    70   35   36 ar
    71   35   38 1
    72   36   37 ar
    73   36   69 1
    74   37   70 1
    75   38   39 3
    76   40   71 1
    77   40   72 1
    78   40   73 1
@<TRIPOS>MOLECULE
ZINC65025211
   64    67     0     0     0
SMALL
USER_CHARGES

@<TRIPOS>ATOM
      1 C1          0.8522    1.4497    0.3416 C.3       1 <0>        -0.1517
      2 C2          0.7179   -0.0732    0.2792 C.3       1 <0>        -0.1389
      3 C3         -0.7633   -0.4559    0.3031 C.3       1 <0>         0.1198
      4 N1         -0.8919   -1.9140    0.2433 N.am      1 <0>        -0.7234
      5 C4         -2.1133   -2.4837    0.2520 C.2       1 <0>         0.5678
      6 O1         -3.1086   -1.7874    0.3094 O.2       1 <0>        -0.5257
      7 C5         -2.2427   -3.9511    0.1919 C.ar      1 <0>        -0.1626
      8 C6         -1.1142   -4.7585    0.0072 C.ar      1 <0>        -0.0514
      9 C7         -1.2903   -6.1353   -0.0418 C.ar      1 <0>         0.1036
     10 C8         -2.5684   -6.6638    0.0926 C.ar      1 <0>         0.1143
     11 N2         -3.6150   -5.8807    0.2657 N.ar      1 <0>        -0.4661
     12 C9         -3.4997   -4.5634    0.3247 C.ar      1 <0>         0.4013
     13 N3         -4.6282   -3.7824    0.5135 N.pl3     1 <0>        -0.6476
     14 C10        -5.4639   -3.3728   -0.6258 C.3       1 <0>         0.1284
     15 C11        -6.9236   -3.7089   -0.3032 C.3       1 <0>        -0.0240
     16 N4         -7.2963   -3.0901    0.9752 N.4       1 <0>        -0.5013
     17 C12        -6.5057   -3.6772    2.0643 C.3       1 <0>        -0.0233
     18 C13        -5.0284   -3.3443    1.8596 C.3       1 <0>         0.1270
     19 N5         -0.1903   -6.9828   -0.2254 N.pl3     1 <0>        -1.0538
     20 S1         -0.0237   -8.3379    0.7117 S.o2      1 <0>         2.6858
     21 O2         -1.2609   -9.0335    0.6435 O.2       1 <0>        -0.9435
     22 O3          1.2096   -8.9388    0.3411 O.2       1 <0>        -0.9333
     23 C14         0.1598   -7.7989    2.3791 C.ar      1 <0>        -0.6813
     24 C15         1.4048   -7.4337    2.8571 C.ar      1 <0>        -0.0200
     25 C16         1.5408   -7.0157    4.1645 C.ar      1 <0>        -0.1373
     26 C17         0.4367   -6.9568    5.0054 C.ar      1 <0>        -0.0103
     27 C18        -0.8037   -7.3155    4.5280 C.ar      1 <0>        -0.0968
     28 C19        -0.9390   -7.7343    3.2105 C.ar      1 <0>        -0.0175
     29 C20        -2.0462   -7.2610    5.3778 C.3       1 <0>        -0.0804
     30 C21        -1.6815   -7.2026    6.8598 C.3       1 <0>        -0.1240
     31 C22        -0.6622   -6.0756    7.0633 C.3       1 <0>        -0.1207
     32 C23         0.6584   -6.4989    6.4232 C.3       1 <0>        -0.0951
     33 H1          1.9074    1.7223    0.3246 H         1 <0>         0.0648
     34 H2          0.3482    1.8943   -0.5165 H         1 <0>         0.0595
     35 H3          0.3967    1.8172    1.2611 H         1 <0>         0.0589
     36 H4          1.1734   -0.4407   -0.6403 H         1 <0>         0.0708
     37 H5          1.2219   -0.5178    1.1373 H         1 <0>         0.0700
     38 H6         -1.2187   -0.0883    1.2226 H         1 <0>         0.0713
     39 H7         -1.2673   -0.0112   -0.5550 H         1 <0>         0.0723
     40 H8         -0.0980   -2.4695    0.1976 H         1 <0>         0.4005
     41 H9         -0.1316   -4.3219   -0.0950 H         1 <0>         0.1499
     42 H10        -2.7070   -7.7342    0.0544 H         1 <0>         0.1975
     43 H11        -5.3622   -2.2997   -0.7875 H         1 <0>         0.0916
     44 H12        -5.1530   -3.9121   -1.5206 H         1 <0>         0.1096
     45 H13        -7.5682   -3.3256   -1.0942 H         1 <0>         0.1393
     46 H14        -7.0402   -4.7903   -0.2312 H         1 <0>         0.1345
     47 H15        -7.1205   -2.0975    0.9309 H         1 <0>         0.4283
     48 H16        -6.8423   -3.2706    3.0180 H         1 <0>         0.1393
     49 H17        -6.6350   -4.7595    2.0647 H         1 <0>         0.1337
     50 H18        -4.4298   -3.8647    2.6072 H         1 <0>         0.1073
     51 H19        -4.8820   -2.2682    1.9532 H         1 <0>         0.0915
     52 H20         0.4738   -6.7760   -0.9015 H         1 <0>         0.4343
     53 H21         2.2678   -7.4761    2.2092 H         1 <0>         0.1414
     54 H22         2.5138   -6.7321    4.5376 H         1 <0>         0.1361
     55 H23        -1.9117   -8.0163    2.8353 H         1 <0>         0.1379
     56 H24        -2.6231   -6.3745    5.1145 H         1 <0>         0.0745
     57 H25        -2.6488   -8.1498    5.1908 H         1 <0>         0.0798
     58 H26        -2.5752   -7.0002    7.4500 H         1 <0>         0.0732
     59 H27        -1.2448   -8.1526    7.1680 H         1 <0>         0.0703
     60 H28        -1.0241   -5.1632    6.5893 H         1 <0>         0.0649
     61 H29        -0.5144   -5.9023    8.1293 H         1 <0>         0.0751
     62 H30         1.0925   -7.3149    7.0007 H         1 <0>         0.0893
     63 H31         1.3458   -5.6530    6.4243 H         1 <0>         0.0841
     64 H32        -8.2773   -3.2479    1.1505 H         1 <0>         0.4305
@<TRIPOS>BOND
     1    1    2 1
     2    1   33 1
     3    1   34 1
     4    1   35 1
     5    2    3 1
     6    2   36 1
     7    2   37 1
     8    3    4 1
     9    3   38 1
    10    3   39 1
    11    4    5 am
    12    4   40 1
    13    5    6 2
    14    5    7 1
    15    7   12 ar
    16    7    8 ar
    17    8    9 ar
    18    8   41 1
    19    9   10 ar
    20    9   19 1
    21   10   11 ar
    22   10   42 1
    23   11   12 ar
    24   12   13 1
    25   13   18 1
    26   13   14 1
    27   14   15 1
    28   14   43 1
    29   14   44 1
    30   15   16 1
    31   15   45 1
    32   15   46 1
    33   16   17 1
    34   16   47 1
    35   16   64 1
    36   17   18 1
    37   17   48 1
    38   17   49 1
    39   18   50 1
    40   18   51 1
    41   19   20 1
    42   19   52 1
    43   20   21 2
    44   20   22 2
    45   20   23 1
    46   23   28 ar
    47   23   24 ar
    48   24   25 ar
    49   24   53 1
    50   25   26 ar
    51   25   54 1
    52   26   32 1
    53   26   27 ar
    54   27   28 ar
    55   27   29 1
    56   28   55 1
    57   29   30 1
    58   29   56 1
    59   29   57 1
    60   30   31 1
    61   30   58 1
    62   30   59 1
    63   31   32 1
    64   31   60 1
    65   31   61 1
    66   32   62 1
    67   32   63 1
@<TRIPOS>MOLECULE
ZINC12246638
   60    63     0     0     0
SMALL
USER_CHARGES
4-fluoro-N-[3-[4-[[(1S)-1-methyl-2-thiazol-5-yl-ethyl]amino]-1-piperidyl]phenyl]benzenesulfonamide
@<TRIPOS>ATOM
      1 C1          3.6906   -2.0613  -11.7578 C.3       1 <0>        -0.1815
      2 C2          3.8763   -0.7915  -10.9247 C.3       1 <0>         0.0299
      3 H1          4.8137   -0.8535  -10.3719 H         1 <0>         0.1424
      4 C3          3.9100    0.4258  -11.8510 C.3       1 <0>        -0.0442
      5 C4          4.2151    1.6620  -11.0450 C.2       1 <0>        -0.2538
      6 C5          5.4124    2.2215  -10.7350 C.2       1 <0>         0.0740
      7 N1          5.4206    3.3202  -10.0095 N.2       1 <0>        -0.5035
      8 C6          4.3062    3.8662   -9.5806 C.2       1 <0>         0.1208
      9 S1          3.1016    2.7942  -10.2253 S.3       1 <0>         0.0167
     10 C7          3.0028   -1.4406   -8.7618 C.3       1 <0>         0.0239
     11 C8          3.8255   -0.6080   -7.7746 C.3       1 <0>        -0.1379
     12 C9          4.0244   -1.4057   -6.4838 C.3       1 <0>         0.0530
     13 N2          2.7161   -1.7341   -5.9034 N.pl3     1 <0>        -0.4881
     14 C10         1.9267   -2.5731   -6.8141 C.3       1 <0>         0.0576
     15 C11         1.6651   -1.8102   -8.1148 C.3       1 <0>        -0.1412
     16 C12         2.8612   -2.3476   -4.6571 C.ar      1 <0>         0.1160
     17 C13         4.1298   -2.5677   -4.1335 C.ar      1 <0>        -0.1748
     18 C14         4.2742   -3.1739   -2.9007 C.ar      1 <0>        -0.0654
     19 C15         3.1589   -3.5639   -2.1842 C.ar      1 <0>        -0.1691
     20 C16         1.8878   -3.3476   -2.7022 C.ar      1 <0>         0.1723
     21 C17         1.7394   -2.7435   -3.9430 C.ar      1 <0>        -0.1480
     22 N3          0.7611   -3.7428   -1.9778 N.pl3     1 <0>        -1.0566
     23 S2          0.6626   -3.4173   -0.3571 S.o2      1 <0>         2.6920
     24 O1          1.8910   -3.8415    0.2178 O.2       1 <0>        -0.9394
     25 O2         -0.5950   -3.9132    0.0811 O.2       1 <0>        -0.9405
     26 C18         0.6023   -1.6652   -0.1803 C.ar      1 <0>        -0.6934
     27 C19        -0.6165   -1.0129   -0.1767 C.ar      1 <0>         0.0125
     28 C20        -0.6650    0.3613   -0.0382 C.ar      1 <0>        -0.1744
     29 C21         0.5078    1.0847    0.0966 C.ar      1 <0>         0.1628
     30 C22         1.7280    0.4304    0.0925 C.ar      1 <0>        -0.1741
     31 C23         1.7740   -0.9439   -0.0458 C.ar      1 <0>         0.0148
     32 F1          0.4617    2.4282    0.2317 F         1 <0>        -0.1257
     33 H2          2.7977   -1.9634  -12.3753 H         1 <0>         0.0870
     34 H3          4.5608   -2.2064  -12.3979 H         1 <0>         0.1110
     35 H4          3.5808   -2.9187  -11.0938 H         1 <0>         0.0842
     36 H5          4.6821    0.2855  -12.6075 H         1 <0>         0.1375
     37 H6          2.9411    0.5392  -12.3374 H         1 <0>         0.1063
     38 H7          6.3356    1.7779  -11.0776 H         1 <0>         0.1772
     39 H8          4.1729    4.7540   -8.9803 H         1 <0>         0.2350
     40 H9          3.5485   -2.3496   -9.0149 H         1 <0>         0.1417
     41 H10         3.2972    0.3190   -7.5518 H         1 <0>         0.0958
     42 H11         4.7963   -0.3778   -8.2134 H         1 <0>         0.0942
     43 H12         4.5976   -0.8100   -5.7735 H         1 <0>         0.1061
     44 H13         4.5647   -2.3260   -6.7054 H         1 <0>         0.0612
     45 H14         2.4769   -3.4879   -7.0340 H         1 <0>         0.0592
     46 H15         0.9763   -2.8252   -6.3437 H         1 <0>         0.1047
     47 H16         1.1029   -0.9021   -7.8973 H         1 <0>         0.0986
     48 H17         1.0925   -2.4390   -8.7966 H         1 <0>         0.1000
     49 H18         5.0036   -2.2642   -4.6910 H         1 <0>         0.1297
     50 H19         5.2611   -3.3439   -2.4962 H         1 <0>         0.1365
     51 H20         3.2753   -4.0376   -1.2207 H         1 <0>         0.1627
     52 H21         0.7527   -2.5782   -4.3498 H         1 <0>         0.1323
     53 H22         0.0362   -4.2080   -2.4239 H         1 <0>         0.4297
     54 H23        -1.5312   -1.5774   -0.2819 H         1 <0>         0.1523
     55 H24        -1.6171    0.8711   -0.0395 H         1 <0>         0.1496
     56 H25         2.6435    0.9937    0.1972 H         1 <0>         0.1485
     57 H26         2.7256   -1.4546   -0.0483 H         1 <0>         0.1508
     58 N4          2.7501   -0.6517   -9.9823 N.4       1 <0>        -0.5195
     59 H27         1.8896   -0.9876  -10.4306 H         1 <0>         0.4303
     60 H28         2.6408    0.3375   -9.7296 H         1 <0>         0.4207
@<TRIPOS>BOND
     1    1    2 1
     2    1   33 1
     3    1   34 1
     4    1   35 1
     5    2    3 1
     6    2    4 1
     7    2   58 1
     8    4    5 1
     9    4   36 1
    10    4   37 1
    11    5    9 1
    12    5    6 2
    13    6    7 1
    14    6   38 1
    15    7    8 2
    16    8    9 1
    17    8   39 1
    18   10   15 1
    19   10   11 1
    20   10   40 1
    21   10   58 1
    22   11   12 1
    23   11   41 1
    24   11   42 1
    25   12   13 1
    26   12   43 1
    27   12   44 1
    28   13   14 1
    29   13   16 1
    30   14   15 1
    31   14   45 1
    32   14   46 1
    33   15   47 1
    34   15   48 1
    35   16   21 ar
    36   16   17 ar
    37   17   18 ar
    38   17   49 1
    39   18   19 ar
    40   18   50 1
    41   19   20 ar
    42   19   51 1
    43   20   21 ar
    44   20   22 1
    45   21   52 1
    46   22   23 1
    47   22   53 1
    48   23   24 2
    49   23   25 2
    50   23   26 1
    51   26   31 ar
    52   26   27 ar
    53   27   28 ar
    54   27   54 1
    55   28   29 ar
    56   28   55 1
    57   29   30 ar
    58   29   32 1
    59   30   31 ar
    60   30   56 1
    61   31   57 1
    62   58   59 1
    63   58   60 1
@<TRIPOS>MOLECULE
ZINC32983615
   63    66     0     0     0
SMALL
USER_CHARGES
(2E)-2-[(4-chlorophenyl)methylene]-N-[3-(4-ethylpiperazin-1-yl)propyl]-3-oxo-4H-1,4-benzoxazine-6-carboxamide
@<TRIPOS>ATOM
      1 C1        -12.2804    2.3321    1.1589 C.3       1 <0>        -0.1905
      2 C2        -11.9557    2.0662   -0.3124 C.3       1 <0>        -0.0074
      3 N1        -10.7093    1.2944   -0.4070 N.4       1 <0>        -0.4021
      4 C3        -10.4885    0.8169   -1.7792 C.3       1 <0>         0.0009
      5 C4         -9.2256   -0.0468   -1.8189 C.3       1 <0>         0.0245
      6 N2         -8.0796    0.7439   -1.3487 N.3       1 <0>        -0.5388
      7 C5         -8.3004    1.2214    0.0235 C.3       1 <0>         0.0198
      8 C6         -9.5633    2.0851    0.0632 C.3       1 <0>        -0.0028
      9 C7         -6.8332   -0.0279   -1.4433 C.3       1 <0>         0.0557
     10 C8         -5.6407    0.8957   -1.1865 C.3       1 <0>        -0.1302
     11 C9         -4.3426    0.0919   -1.2851 C.3       1 <0>         0.1216
     12 N3         -3.2008    0.9762   -1.0392 N.am      1 <0>        -0.7389
     13 C10        -1.9469    0.4834   -1.0752 C.2       1 <0>         0.5654
     14 O1         -1.7633   -0.6950   -1.3117 O.2       1 <0>        -0.5326
     15 C11        -0.7964    1.3744   -0.8274 C.ar      1 <0>        -0.1269
     16 C12        -1.0067    2.7278   -0.5503 C.ar      1 <0>        -0.0779
     17 C13         0.0676    3.5608   -0.3246 C.ar      1 <0>        -0.1080
     18 C14         1.3605    3.0576   -0.3670 C.ar      1 <0>         0.1001
     19 C15         1.5788    1.7048   -0.6372 C.ar      1 <0>         0.1019
     20 C16         0.5038    0.8646   -0.8645 C.ar      1 <0>        -0.0656
     21 N4          2.8845    1.1968   -0.6781 N.am      1 <0>        -0.6729
     22 C17         3.8957    1.9555   -0.1908 C.2       1 <0>         0.5420
     23 O2          5.0442    1.5536   -0.1927 O.2       1 <0>        -0.4750
     24 C18         3.5508    3.2896    0.3436 C.2       1 <0>        -0.0195
     25 C19         4.3199    3.8968    1.2746 C.2       1 <0>        -0.0306
     26 C20         5.4143    3.1563    1.9216 C.ar      1 <0>        -0.0673
     27 C21         6.6152    3.8039    2.2294 C.ar      1 <0>        -0.0753
     28 C22         7.6343    3.1050    2.8404 C.ar      1 <0>        -0.1153
     29 C23         7.4752    1.7618    3.1396 C.ar      1 <0>        -0.0177
     30 C24         6.2907    1.1124    2.8325 C.ar      1 <0>        -0.1122
     31 C25         5.2608    1.7999    2.2267 C.ar      1 <0>        -0.0563
     32 Cl1         8.7663    0.8882    3.9035 Cl        1 <0>        -0.0629
     33 O3          2.4195    3.8832   -0.1454 O.3       1 <0>        -0.2294
     34 H1        -13.2137    2.9100    1.2298 H         1 <0>         0.1074
     35 H2        -11.4599    2.9029    1.6181 H         1 <0>         0.0798
     36 H3        -12.4011    1.3745    1.6866 H         1 <0>         0.0806
     37 H4        -12.7762    1.4954   -0.7716 H         1 <0>         0.1310
     38 H5        -11.8350    3.0238   -0.8401 H         1 <0>         0.1274
     39 H6        -11.3532    0.2190   -2.1029 H         1 <0>         0.1363
     40 H7        -10.3660    1.6785   -2.4520 H         1 <0>         0.1351
     41 H8         -9.3599   -0.9229   -1.1674 H         1 <0>         0.0618
     42 H9         -9.0427   -0.3817   -2.8506 H         1 <0>         0.1248
     43 H10        -8.4229    0.3598    0.6963 H         1 <0>         0.0615
     44 H11        -7.4357    1.8193    0.3473 H         1 <0>         0.1250
     45 H12        -9.4302    2.9612   -0.5885 H         1 <0>         0.1348
     46 H13        -9.7474    2.4200    1.0947 H         1 <0>         0.1363
     47 H14        -6.8422   -0.8323   -0.6931 H         1 <0>         0.0518
     48 H15        -6.7483   -0.4654   -2.4490 H         1 <0>         0.0941
     49 H16        -5.6318    1.7001   -1.9367 H         1 <0>         0.0855
     50 H17        -5.7256    1.3332   -0.1808 H         1 <0>         0.0715
     51 H18        -4.3516   -0.7125   -0.5349 H         1 <0>         0.0688
     52 H19        -4.2577   -0.3456   -2.2908 H         1 <0>         0.0720
     53 H20        -3.3669    2.0423   -0.8252 H         1 <0>         0.4204
     54 H21        -2.0116    3.1221   -0.5169 H         1 <0>         0.1378
     55 H22        -0.0967    4.6073   -0.1140 H         1 <0>         0.1505
     56 H23         0.6692   -0.1818   -1.0744 H         1 <0>         0.1498
     57 H24         3.0734    0.1988   -1.1004 H         1 <0>         0.4495
     58 H25         4.1276    4.9446    1.5486 H         1 <0>         0.1602
     59 H26         6.7421    4.8501    1.9930 H         1 <0>         0.1390
     60 H27         8.5607    3.6048    3.0823 H         1 <0>         0.1394
     61 H28         6.1736    0.0650    3.0686 H         1 <0>         0.1355
     62 H29         4.3377    1.2926    1.9885 H         1 <0>         0.1192
     63 H30       -10.8068    0.4154    0.2471 H         1 <0>         0.4374
@<TRIPOS>BOND
     1    1    2 1
     2    1   34 1
     3    1   35 1
     4    1   36 1
     5    2    3 1
     6    2   37 1
     7    2   38 1
     8    3    8 1
     9    3    4 1
    10    3   63 1
    11    4    5 1
    12    4   39 1
    13    4   40 1
    14    5    6 1
    15    5   41 1
    16    5   42 1
    17    6    7 1
    18    6    9 1
    19    7    8 1
    20    7   43 1
    21    7   44 1
    22    8   45 1
    23    8   46 1
    24    9   10 1
    25    9   47 1
    26    9   48 1
    27   10   11 1
    28   10   49 1
    29   10   50 1
    30   11   12 1
    31   11   51 1
    32   11   52 1
    33   12   13 am
    34   12   53 1
    35   13   14 2
    36   13   15 1
    37   15   20 ar
    38   15   16 ar
    39   16   17 ar
    40   16   54 1
    41   17   18 ar
    42   17   55 1
    43   18   33 1
    44   18   19 ar
    45   19   20 ar
    46   19   21 1
    47   20   56 1
    48   21   22 am
    49   21   57 1
    50   22   23 2
    51   22   24 1
    52   24   25 2
    53   24   33 1
    54   25   26 1
    55   25   58 1
    56   26   31 ar
    57   26   27 ar
    58   27   28 ar
    59   27   59 1
    60   28   29 ar
    61   28   60 1
    62   29   30 ar
    63   29   32 1
    64   30   31 ar
    65   30   61 1
    66   31   62 1
@<TRIPOS>MOLECULE
ZINC36207962
   65    68     0     0     0
SMALL
USER_CHARGES

@<TRIPOS>ATOM
      1 C1          2.3064    0.6803    2.2185 C.3       1 <0>        -0.1204
      2 C2          2.0334   -0.7798    1.9640 C.ar      1 <0>        -0.0662
      3 C3          2.0754   -1.2737    0.6723 C.ar      1 <0>        -0.1270
      4 C4          1.8263   -2.6096    0.4332 C.ar      1 <0>        -0.0914
      5 C5          1.5318   -3.4623    1.4965 C.ar      1 <0>        -0.0590
      6 C6          1.4909   -2.9589    2.7958 C.ar      1 <0>        -0.0373
      7 C7          1.7474   -1.6219    3.0233 C.ar      1 <0>        -0.1209
      8 C8          1.1734   -3.8739    3.9504 C.3       1 <0>        -0.1107
      9 C9          1.2628   -4.8983    1.2462 C.2       1 <0>        -0.0160
     10 C10         2.2363   -5.7096    0.7665 C.2       1 <0>        -0.1585
     11 S1          1.4294   -7.2942    0.6435 S.3       1 <0>         0.1956
     12 C11        -0.1799   -6.8353    1.2329 C.2       1 <0>         0.0652
     13 C12        -0.0526   -5.4659    1.5171 C.2       1 <0>        -0.1991
     14 C13        -1.2282   -4.8260    2.0245 C.2       1 <0>         0.5523
     15 O1         -1.2176   -3.6376    2.2961 O.2       1 <0>        -0.4715
     16 N1         -2.3456   -5.5562    2.1968 N.am      1 <0>        -0.6244
     17 H1         -3.1452   -5.1279    2.5403 H         1 <0>         0.4258
     18 C14        -2.3757   -6.8805    1.8987 C.2       1 <0>         0.3598
     19 N2         -1.3223   -7.4899    1.4246 N.2       1 <0>        -0.4883
     20 C15        -3.6497   -7.6578    2.1074 C.3       1 <0>         0.0443
     21 N3         -3.4856   -9.0182    1.5781 N.4       1 <0>        -0.3595
     22 C16        -3.3480   -8.9617    0.1166 C.3       1 <0>         0.0198
     23 C17        -4.4944   -8.1759   -0.4658 C.ar      1 <0>        -0.1528
     24 C18        -5.6969   -8.8031   -0.7335 C.ar      1 <0>        -0.1059
     25 C19        -6.7485   -8.0823   -1.2678 C.ar      1 <0>        -0.1058
     26 C20        -6.5978   -6.7342   -1.5340 C.ar      1 <0>        -0.0839
     27 C21        -5.3956   -6.1068   -1.2654 C.ar      1 <0>        -0.1064
     28 C22        -4.3454   -6.8267   -0.7272 C.ar      1 <0>        -0.1008
     29 C23        -4.6621   -9.8252    1.9283 C.3       1 <0>        -0.0620
     30 C24        -4.2888  -11.3088    1.9029 C.3       1 <0>         0.0907
     31 H2         -3.4856  -11.4936    2.6163 H         1 <0>         0.1364
     32 C25        -5.5105  -12.1485    2.2816 C.3       1 <0>         0.0334
     33 O2         -5.1336  -13.5240    2.3715 O.3       1 <0>        -0.3685
     34 C26        -6.2076  -14.3992    2.7216 C.3       1 <0>         0.1800
     35 C27        -5.7114  -15.7835    2.7860 C.1       1 <0>        -0.2193
     36 C28        -5.3156  -16.8876    2.8374 C.1       1 <0>        -0.1426
     37 O3         -3.8523  -11.6677    0.5905 O.3       1 <0>        -0.5364
     38 H3          3.3734    0.8265    2.3866 H         1 <0>         0.0748
     39 H4          1.9912    1.2648    1.3542 H         1 <0>         0.0690
     40 H5          1.7520    1.0055    3.0988 H         1 <0>         0.0683
     41 H6          2.3032   -0.6123   -0.1505 H         1 <0>         0.1256
     42 H7          1.8590   -2.9940   -0.5755 H         1 <0>         0.1217
     43 H8          1.7206   -1.2317    4.0300 H         1 <0>         0.1238
     44 H9          2.0974   -4.3010    4.3402 H         1 <0>         0.0701
     45 H10         0.6750   -3.3071    4.7368 H         1 <0>         0.0678
     46 H11         0.5183   -4.6754    3.6092 H         1 <0>         0.0539
     47 H12         3.2564   -5.4567    0.5178 H         1 <0>         0.2070
     48 H13        -3.8748   -7.7071    3.1728 H         1 <0>         0.1678
     49 H14        -4.4679   -7.1612    1.5858 H         1 <0>         0.1647
     50 H15        -2.4067   -8.4764   -0.1412 H         1 <0>         0.1484
     51 H16        -3.3580   -9.9735   -0.2886 H         1 <0>         0.1594
     52 H17        -5.8146   -9.8563   -0.5256 H         1 <0>         0.1293
     53 H18        -7.6877   -8.5725   -1.4776 H         1 <0>         0.1386
     54 H19        -7.4191   -6.1712   -1.9521 H         1 <0>         0.1379
     55 H20        -5.2778   -5.0537   -1.4737 H         1 <0>         0.1362
     56 H21        -3.4074   -6.3357   -0.5139 H         1 <0>         0.1223
     57 H22        -5.0046   -9.5538    2.9269 H         1 <0>         0.1489
     58 H23        -5.4583   -9.6385    1.2078 H         1 <0>         0.1460
     59 H24        -5.8971  -11.8140    3.2442 H         1 <0>         0.0743
     60 H25        -6.2816  -12.0321    1.5200 H         1 <0>         0.0676
     61 H26        -6.6087  -14.1114    3.6934 H         1 <0>         0.0787
     62 H27        -6.9932  -14.3295    1.9692 H         1 <0>         0.0784
     63 H28        -4.9617  -17.8751    2.8834 H         1 <0>         0.2254
     64 H29        -4.5153  -11.5219   -0.0982 H         1 <0>         0.3845
     65 H30        -2.6593   -9.4372    1.9777 H         1 <0>         0.4403
@<TRIPOS>BOND
     1    1    2 1
     2    1   38 1
     3    1   39 1
     4    1   40 1
     5    2    7 ar
     6    2    3 ar
     7    3    4 ar
     8    3   41 1
     9    4    5 ar
    10    4   42 1
    11    5    6 ar
    12    5    9 1
    13    6    7 ar
    14    6    8 1
    15    7   43 1
    16    8   44 1
    17    8   45 1
    18    8   46 1
    19    9   13 1
    20    9   10 2
    21   10   11 1
    22   10   47 1
    23   11   12 1
    24   12   19 1
    25   12   13 2
    26   13   14 1
    27   14   15 2
    28   14   16 am
    29   16   17 1
    30   16   18 1
    31   18   19 2
    32   18   20 1
    33   20   21 1
    34   20   48 1
    35   20   49 1
    36   21   22 1
    37   21   29 1
    38   21   65 1
    39   22   23 1
    40   22   50 1
    41   22   51 1
    42   23   28 ar
    43   23   24 ar
    44   24   25 ar
    45   24   52 1
    46   25   26 ar
    47   25   53 1
    48   26   27 ar
    49   26   54 1
    50   27   28 ar
    51   27   55 1
    52   28   56 1
    53   29   30 1
    54   29   57 1
    55   29   58 1
    56   30   31 1
    57   30   32 1
    58   30   37 1
    59   32   33 1
    60   32   59 1
    61   32   60 1
    62   33   34 1
    63   34   35 1
    64   34   61 1
    65   34   62 1
    66   35   36 3
    67   36   63 1
    68   37   64 1
@<TRIPOS>MOLECULE
ZINC39667092
   71    74     0     0     0
SMALL
USER_CHARGES

@<TRIPOS>ATOM
      1 C1         -2.9685    0.2171   -2.3222 C.3       1 <0>        -0.1394
      2 C2         -2.3015   -1.0465   -1.7750 C.3       1 <0>        -0.1204
      3 S1         -0.7386   -1.3327   -2.6502 S.3       1 <0>        -0.0203
      4 C3         -0.1016   -2.8022   -1.9156 C.ar      1 <0>         0.1665
      5 C4          1.1274   -3.3272   -2.3534 C.ar      1 <0>        -0.1840
      6 C5          1.6127   -4.4950   -1.7543 C.ar      1 <0>        -0.0265
      7 C6          0.8587   -5.0832   -0.7542 C.ar      1 <0>        -0.1872
      8 C7         -0.3417   -4.5076   -0.3772 C.ar      1 <0>         0.1507
      9 N1         -0.7802   -3.4040   -0.9500 N.ar      1 <0>        -0.4925
     10 C8          1.8901   -2.6599   -3.4237 C.2       1 <0>         0.5933
     11 O1          1.8937   -1.4464   -3.5019 O.2       1 <0>        -0.4994
     12 N2          2.5835   -3.3948   -4.3157 N.am      1 <0>        -0.6188
     13 C9          2.6158   -4.8705   -4.4473 C.3       1 <0>         0.1062
     14 C10         2.6260   -5.1264   -5.9710 C.3       1 <0>        -0.1138
     15 H1          1.6128   -5.2999   -6.3335 H         1 <0>         0.1120
     16 C11         3.1997   -3.8369   -6.5817 C.3       1 <0>        -0.0715
     17 C12         3.4811   -2.9090   -5.3910 C.3       1 <0>         0.1095
     18 C13         2.1777   -3.1934   -7.5140 C.3       1 <0>        -0.1346
     19 C14         2.7917   -1.9445   -8.1527 C.3       1 <0>        -0.0112
     20 N3          3.9987   -2.3180   -8.9001 N.4       1 <0>        -0.5045
     21 C15         5.0120   -2.8507   -7.9813 C.3       1 <0>        -0.0078
     22 C16         4.4918   -4.1378   -7.3351 C.3       1 <0>        -0.1465
     23 C17         3.5084   -6.3031   -6.2996 C.2       1 <0>         0.5194
     24 O2          4.4738   -6.5489   -5.6079 O.2       1 <0>        -0.5198
     25 N4          3.2246   -7.0823   -7.3620 N.am      1 <0>        -0.7276
     26 C18         4.0824   -8.2262   -7.6814 C.3       1 <0>         0.1199
     27 C19         3.5426   -8.9371   -8.9240 C.3       1 <0>        -0.0872
     28 C20         4.4250  -10.1138   -9.2526 C.ar      1 <0>        -0.1008
     29 C21         5.4468   -9.9757  -10.1736 C.ar      1 <0>        -0.1056
     30 C22         6.2561  -11.0549  -10.4749 C.ar      1 <0>        -0.1251
     31 C23         6.0440  -12.2723   -9.8550 C.ar      1 <0>        -0.0739
     32 C24         5.0231  -12.4101   -8.9336 C.ar      1 <0>        -0.1185
     33 C25         4.2163  -11.3295   -8.6290 C.ar      1 <0>        -0.0721
     34 C26         3.1065  -11.4783   -7.6204 C.3       1 <0>        -0.1214
     35 C27         6.9258  -13.4493  -10.1843 C.3       1 <0>        -0.1210
     36 H2         -2.3071    1.0706   -2.1733 H         1 <0>         0.0663
     37 H3         -3.1659    0.0917   -3.3868 H         1 <0>         0.0632
     38 H4         -3.9076    0.3890   -1.7963 H         1 <0>         0.0792
     39 H5         -2.1041   -0.9212   -0.7103 H         1 <0>         0.0935
     40 H6         -2.9629   -1.9000   -1.9238 H         1 <0>         0.0906
     41 H7          2.5526   -4.9268   -2.0651 H         1 <0>         0.1442
     42 H8          1.2045   -5.9854   -0.2716 H         1 <0>         0.1484
     43 H9         -0.9285   -4.9688    0.4033 H         1 <0>         0.1689
     44 H10         3.5187   -5.2733   -3.9882 H         1 <0>         0.1016
     45 H11         1.7284   -5.3120   -3.9937 H         1 <0>         0.0943
     46 H12         3.2422   -1.8773   -5.6490 H         1 <0>         0.0923
     47 H13         4.5235   -2.9937   -5.0837 H         1 <0>         0.0861
     48 H14         1.9000   -3.9021   -8.2942 H         1 <0>         0.0961
     49 H15         1.2917   -2.9127   -6.9445 H         1 <0>         0.1194
     50 H16         2.0696   -1.4916   -8.8320 H         1 <0>         0.1403
     51 H17         3.0542   -1.2295   -7.3729 H         1 <0>         0.1350
     52 H18         3.7645   -3.0212   -9.5847 H         1 <0>         0.4272
     53 H19         5.9263   -3.0659   -8.5344 H         1 <0>         0.1392
     54 H20         5.2219   -2.1141   -7.2057 H         1 <0>         0.1338
     55 H21         5.2374   -4.5228   -6.6394 H         1 <0>         0.1271
     56 H22         4.2973   -4.8806   -8.1088 H         1 <0>         0.0964
     57 H23         2.4524   -6.8857   -7.9152 H         1 <0>         0.4010
     58 H24         5.0967   -7.8770   -7.8744 H         1 <0>         0.0733
     59 H25         4.0907   -8.9200   -6.8407 H         1 <0>         0.0769
     60 H26         2.5283   -9.2863   -8.7311 H         1 <0>         0.0820
     61 H27         3.5343   -8.2433   -9.7647 H         1 <0>         0.0756
     62 H28         5.6124   -9.0247  -10.6579 H         1 <0>         0.1190
     63 H29         7.0538  -10.9472  -11.1949 H         1 <0>         0.1232
     64 H30         4.8573  -13.3612   -8.4495 H         1 <0>         0.1245
     65 H31         2.1933  -11.7885   -8.1282 H         1 <0>         0.0732
     66 H32         3.3850  -12.2301   -6.8820 H         1 <0>         0.0699
     67 H33         2.9385  -10.5238   -7.1216 H         1 <0>         0.0662
     68 H34         7.7822  -13.4614   -9.5101 H         1 <0>         0.0739
     69 H35         6.3582  -14.3724  -10.0673 H         1 <0>         0.0691
     70 H36         7.2747  -13.3652  -11.2135 H         1 <0>         0.0689
     71 H37         4.3670   -1.5045   -9.3698 H         1 <0>         0.4344
@<TRIPOS>BOND
     1    1    2 1
     2    1   36 1
     3    1   37 1
     4    1   38 1
     5    2    3 1
     6    2   39 1
     7    2   40 1
     8    3    4 1
     9    4    9 ar
    10    4    5 ar
    11    5    6 ar
    12    5   10 1
    13    6    7 ar
    14    6   41 1
    15    7    8 ar
    16    7   42 1
    17    8    9 ar
    18    8   43 1
    19   10   11 2
    20   10   12 am
    21   12   17 1
    22   12   13 1
    23   13   14 1
    24   13   44 1
    25   13   45 1
    26   14   15 1
    27   14   16 1
    28   14   23 1
    29   16   22 1
    30   16   17 1
    31   16   18 1
    32   17   46 1
    33   17   47 1
    34   18   19 1
    35   18   48 1
    36   18   49 1
    37   19   20 1
    38   19   50 1
    39   19   51 1
    40   20   21 1
    41   20   52 1
    42   20   71 1
    43   21   22 1
    44   21   53 1
    45   21   54 1
    46   22   55 1
    47   22   56 1
    48   23   24 2
    49   23   25 am
    50   25   26 1
    51   25   57 1
    52   26   27 1
    53   26   58 1
    54   26   59 1
    55   27   28 1
    56   27   60 1
    57   27   61 1
    58   28   33 ar
    59   28   29 ar
    60   29   30 ar
    61   29   62 1
    62   30   31 ar
    63   30   63 1
    64   31   32 ar
    65   31   35 1
    66   32   33 ar
    67   32   64 1
    68   33   34 1
    69   34   65 1
    70   34   66 1
    71   34   67 1
    72   35   68 1
    73   35   69 1
    74   35   70 1
@<TRIPOS>MOLECULE
ZINC63830546
   67    71     0     0     0
SMALL
USER_CHARGES

@<TRIPOS>ATOM
      1 C1          0.9884    0.3763    0.7637 C.3       1 <0>         0.0858
      2 N1          0.7811   -1.0575    0.5459 N.pl3     1 <0>        -0.6296
      3 C2          0.7100   -1.9695    1.6902 C.3       1 <0>         0.0852
      4 C3          0.6512   -1.5551   -0.7528 C.ar      1 <0>         0.2354
      5 C4          0.4488   -2.9135   -0.9608 C.ar      1 <0>        -0.1930
      6 C5          0.3203   -3.4021   -2.2461 C.ar      1 <0>        -0.0428
      7 C6          0.3934   -2.5406   -3.3254 C.ar      1 <0>        -0.1699
      8 C7          0.5947   -1.1877   -3.1219 C.ar      1 <0>        -0.0696
      9 C8          0.7183   -0.6917   -1.8390 C.ar      1 <0>        -0.1938
     10 C9          0.2537   -3.0775   -4.7266 C.3       1 <0>        -0.0067
     11 H1          0.1026   -4.1563   -4.6890 H         1 <0>         0.1216
     12 C10         1.5245   -2.7679   -5.5204 C.3       1 <0>         0.1294
     13 N2          1.4384   -3.3922   -6.8430 N.am      1 <0>        -0.7464
     14 C11         2.4513   -3.2530   -7.7211 C.2       1 <0>         0.5720
     15 O1          3.4381   -2.6083   -7.4152 O.2       1 <0>        -0.5607
     16 C12         2.3682   -3.8558   -8.9979 C.2       1 <0>        -0.3627
     17 C13         3.3252   -3.6197   -9.9187 C.2       1 <0>         0.2632
     18 N3          4.3038   -2.7158   -9.7047 N.pl3     1 <0>        -0.6855
     19 C14         5.5582   -2.8949  -10.4688 C.3       1 <0>         0.4332
     20 H2          6.2532   -3.5465   -9.9393 H         1 <0>         0.1348
     21 S1          4.9075   -3.7088  -11.9912 S.3       1 <0>        -0.2894
     22 C15         3.3556   -4.3644  -11.2439 C.3       1 <0>        -0.0427
     23 N4          6.1786   -1.6047  -10.7798 N.am      1 <0>        -0.6134
     24 C16         7.5611   -1.4413  -11.2446 C.3       1 <0>         0.1025
     25 C17         7.6284   -0.0199  -11.8459 C.3       1 <0>        -0.1302
     26 C18         6.4895    0.6983  -11.0857 C.3       1 <0>        -0.1538
     27 C19         5.5531   -0.4190  -10.6816 C.2       1 <0>         0.5251
     28 O2          4.4057   -0.2668  -10.3193 O.2       1 <0>        -0.5176
     29 C20        -0.9288   -2.4278   -5.3980 C.2       1 <0>         0.0870
     30 C21        -2.0280   -3.0465   -5.8860 C.ar      1 <0>        -0.1756
     31 C22        -2.4357   -4.4556   -5.9370 C.ar      1 <0>        -0.0094
     32 C23        -3.6217   -4.7753   -6.5028 C.ar      1 <0>        -0.1529
     33 C24        -4.4691   -3.7971   -7.0410 C.ar      1 <0>         0.0524
     34 C25        -4.1636   -2.4823   -7.0314 C.ar      1 <0>        -0.2088
     35 C26        -2.9409   -2.0327   -6.4607 C.ar      1 <0>         0.3282
     36 N5         -2.4261   -0.8338   -6.3330 N.pl3     1 <0>        -0.5849
     37 C27        -1.1295   -0.9512   -5.6565 C.3       1 <0>         0.0528
     38 H3          2.0568    0.5922    0.7695 H         1 <0>         0.0561
     39 H4          0.5084    0.9386   -0.0373 H         1 <0>         0.0699
     40 H5          0.5542    0.6649    1.7209 H         1 <0>         0.0737
     41 H6         -0.3246   -2.0560    2.0222 H         1 <0>         0.0551
     42 H7          1.0804   -2.9515    1.3958 H         1 <0>         0.0725
     43 H8          1.3214   -1.5796    2.5040 H         1 <0>         0.0741
     44 H9          0.3924   -3.5869   -0.1183 H         1 <0>         0.1313
     45 H10         0.1630   -4.4581   -2.4086 H         1 <0>         0.1280
     46 H11         0.6513   -0.5177   -3.9670 H         1 <0>         0.1181
     47 H12         0.8711    0.3656   -1.6805 H         1 <0>         0.1296
     48 H13         1.6281   -1.6888   -5.6341 H         1 <0>         0.0748
     49 H14         2.3903   -3.1620   -4.9883 H         1 <0>         0.0950
     50 H15         0.6524   -3.9057   -7.0866 H         1 <0>         0.3963
     51 H16         1.5384   -4.5049   -9.2356 H         1 <0>         0.1368
     52 H17         4.1902   -1.9828   -9.0796 H         1 <0>         0.4374
     53 H18         3.4192   -5.4411  -11.0868 H         1 <0>         0.1312
     54 H19         2.4903   -4.1100  -11.8560 H         1 <0>         0.1323
     55 H20         8.2534   -1.5298  -10.4074 H         1 <0>         0.0841
     56 H21         7.7931   -2.1848  -12.0071 H         1 <0>         0.0889
     57 H22         8.5913    0.4466  -11.6376 H         1 <0>         0.0999
     58 H23         7.4301   -0.0399  -12.9176 H         1 <0>         0.0884
     59 H24         6.8810    1.2099  -10.2064 H         1 <0>         0.1108
     60 H25         5.9779    1.4027  -11.7417 H         1 <0>         0.1084
     61 H26        -1.7979   -5.2258   -5.5289 H         1 <0>         0.1601
     62 H27        -3.9237   -5.8115   -6.5414 H         1 <0>         0.1572
     63 H28        -5.4048   -4.1081   -7.4817 H         1 <0>         0.1596
     64 H29        -4.8511   -1.7680   -7.4596 H         1 <0>         0.1592
     65 H30        -1.1439   -0.4034   -4.7143 H         1 <0>         0.1749
     66 H31        -0.3363   -0.5714   -6.3005 H         1 <0>         0.1724
     67 H32        -2.8357   -0.0070   -6.6321 H         1 <0>         0.4549
@<TRIPOS>BOND
     1    1    2 1
     2    1   38 1
     3    1   39 1
     4    1   40 1
     5    2    3 1
     6    2    4 1
     7    3   41 1
     8    3   42 1
     9    3   43 1
    10    4    9 ar
    11    4    5 ar
    12    5    6 ar
    13    5   44 1
    14    6    7 ar
    15    6   45 1
    16    7    8 ar
    17    7   10 1
    18    8    9 ar
    19    8   46 1
    20    9   47 1
    21   10   11 1
    22   10   12 1
    23   10   29 1
    24   12   13 1
    25   12   48 1
    26   12   49 1
    27   13   50 1
    28   13   14 am
    29   14   15 2
    30   14   16 1
    31   16   51 1
    32   16   17 2
    33   17   22 1
    34   17   18 1
    35   18   19 1
    36   18   52 1
    37   19   20 1
    38   19   21 1
    39   19   23 1
    40   21   22 1
    41   22   53 1
    42   22   54 1
    43   23   27 am
    44   23   24 1
    45   24   25 1
    46   24   55 1
    47   24   56 1
    48   25   26 1
    49   25   57 1
    50   25   58 1
    51   26   27 1
    52   26   59 1
    53   26   60 1
    54   27   28 2
    55   29   37 1
    56   29   30 2
    57   30   35 ar
    58   30   31 ar
    59   31   32 ar
    60   31   61 1
    61   32   33 ar
    62   32   62 1
    63   33   34 ar
    64   33   63 1
    65   34   35 ar
    66   34   64 1
    67   35   36 2
    68   36   37 1
    69   36   67 1
    70   37   65 1
    71   37   66 1
@<TRIPOS>MOLECULE
ZINC15859760
   57    61     0     0     0
SMALL
USER_CHARGES
N-[2-methyl-3-[(S)-[(6-methyl-2-pyridyl)amino]-(2-pyridyl)methyl]-1H-indol-5-yl]furan-2-carboxamide
@<TRIPOS>ATOM
      1 C1         -5.4940    6.5034    5.7448 C.3       1 <0>        -0.1484
      2 C2         -4.2381    5.8788    5.1939 C.ar      1 <0>         0.1922
      3 C3         -3.8231    6.1965    3.9159 C.ar      1 <0>        -0.1750
      4 C4         -2.6625    5.6221    3.4153 C.ar      1 <0>         0.0531
      5 C5         -1.9645    4.7373    4.2177 C.ar      1 <0>        -0.2083
      6 C6         -2.4433    4.4591    5.4937 C.ar      1 <0>         0.4575
      7 N1         -1.7519    3.5720    6.3106 N.pl3     1 <0>        -0.6906
      8 C7         -0.5245    2.9352    5.8267 C.3       1 <0>         0.2843
      9 H1         -0.0168    3.6052    5.1327 H         1 <0>         0.1219
     10 C8         -0.8702    1.6492    5.1212 C.ar      1 <0>         0.1066
     11 C9         -2.1966    1.3062    4.9372 C.ar      1 <0>        -0.1718
     12 C10        -2.5039    0.1240    4.2817 C.ar      1 <0>        -0.0669
     13 C11        -1.4609   -0.6783    3.8440 C.ar      1 <0>        -0.1616
     14 C12        -0.1592   -0.2729    4.0692 C.ar      1 <0>         0.1150
     15 N2          0.0959    0.8616    4.6914 N.ar      1 <0>        -0.4588
     16 C13         0.3820    2.6399    6.9938 C.2       1 <0>        -0.2127
     17 C14         1.6999    2.8854    7.0630 C.2       1 <0>         0.1518
     18 N3          2.1864    2.4833    8.2768 N.pl3     1 <0>        -0.5821
     19 H2          3.1114    2.5586    8.5592 H         1 <0>         0.4236
     20 C15         1.1658    1.9551    9.0389 C.ar      1 <0>         0.0908
     21 C16        -0.0094    2.0364    8.2701 C.ar      1 <0>        -0.0694
     22 C17        -1.2192    1.5765    8.7933 C.ar      1 <0>        -0.1243
     23 C18        -1.2533    1.0460   10.0696 C.ar      1 <0>         0.1405
     24 C19        -0.0872    0.9701   10.8294 C.ar      1 <0>        -0.0974
     25 C20         1.1121    1.4136   10.3189 C.ar      1 <0>        -0.0944
     26 N4         -2.4636    0.5827   10.6007 N.am      1 <0>        -0.6665
     27 C21        -2.4757   -0.4945   11.4105 C.2       1 <0>         0.6093
     28 O1         -1.4279   -1.0121   11.7506 O.2       1 <0>        -0.4940
     29 C22        -3.7512   -1.0430   11.8819 C.2       1 <0>        -0.0968
     30 C23        -3.9058   -2.1243   12.7015 C.2       1 <0>        -0.1016
     31 C24        -5.2863   -2.2917   12.8926 C.2       1 <0>        -0.2222
     32 C25        -5.9060   -1.3177   12.1903 C.2       1 <0>         0.0040
     33 O2         -4.9775   -0.5642   11.5867 O.3       1 <0>        -0.1698
     34 C26         2.5222    3.5105    5.9657 C.3       1 <0>        -0.1086
     35 H3         -5.2436    7.4332    6.2556 H         1 <0>         0.1126
     36 H4         -5.9624    5.8164    6.4497 H         1 <0>         0.0927
     37 H5         -6.1846    6.7122    4.9277 H         1 <0>         0.1150
     38 H6         -4.3935    6.8878    3.3133 H         1 <0>         0.1820
     39 H7         -2.3150    5.8570    2.4201 H         1 <0>         0.1750
     40 H8         -1.0603    4.2688    3.8582 H         1 <0>         0.1784
     41 H9         -2.0821    3.3747    7.2010 H         1 <0>         0.4198
     42 H10        -2.9835    1.9532    5.2957 H         1 <0>         0.1186
     43 H11        -3.5311   -0.1676    4.1199 H         1 <0>         0.1372
     44 H12        -1.6635   -1.6081    3.3332 H         1 <0>         0.1424
     45 H13         0.6586   -0.8921    3.7314 H         1 <0>         0.1645
     46 H14        -2.1228    1.6345    8.2047 H         1 <0>         0.1136
     47 H15        -0.1236    0.5540   11.8253 H         1 <0>         0.1487
     48 H16         2.0092    1.3522   10.9171 H         1 <0>         0.1326
     49 H17        -3.2931    1.0372   10.3856 H         1 <0>         0.4130
     50 H18        -3.1185   -2.7330   13.1210 H         1 <0>         0.1644
     51 H19        -5.7634   -3.0554   13.4888 H         1 <0>         0.1626
     52 H20        -6.9739   -1.1688   12.1290 H         1 <0>         0.2152
     53 H21         2.5987    4.5844    6.1359 H         1 <0>         0.0846
     54 H22         3.5196    3.0709    5.9636 H         1 <0>         0.0826
     55 H23         2.0428    3.3284    5.0038 H         1 <0>         0.0904
     56 N5         -3.5779    5.0144    6.0098 N.ar      1 <0>        -0.5391
     57 H24        -3.9121    4.7934    6.9551 H         1 <0>         0.4638
@<TRIPOS>BOND
     1    1    2 1
     2    1   35 1
     3    1   36 1
     4    1   37 1
     5    2    3 ar
     6    2   56 ar
     7    3    4 ar
     8    3   38 1
     9    4    5 ar
    10    4   39 1
    11    5    6 ar
    12    5   40 1
    13    6    7 1
    14    6   56 ar
    15    7    8 1
    16    7   41 1
    17    8    9 1
    18    8   10 1
    19    8   16 1
    20   10   15 ar
    21   10   11 ar
    22   11   12 ar
    23   11   42 1
    24   12   13 ar
    25   12   43 1
    26   13   14 ar
    27   13   44 1
    28   14   15 ar
    29   14   45 1
    30   16   21 1
    31   16   17 2
    32   17   18 1
    33   17   34 1
    34   18   19 1
    35   18   20 1
    36   20   25 ar
    37   20   21 ar
    38   21   22 ar
    39   22   23 ar
    40   22   46 1
    41   23   24 ar
    42   23   26 1
    43   24   25 ar
    44   24   47 1
    45   25   48 1
    46   26   27 am
    47   26   49 1
    48   27   28 2
    49   27   29 1
    50   29   33 1
    51   29   30 2
    52   30   31 1
    53   30   50 1
    54   31   32 2
    55   31   51 1
    56   32   33 1
    57   32   52 1
    58   34   53 1
    59   34   54 1
    60   34   55 1
    61   56   57 1
@<TRIPOS>MOLECULE
ZINC38762541
   53    56     0     0     0
SMALL
USER_CHARGES

@<TRIPOS>ATOM
      1 C1         -0.0184    1.5028    0.0103 C.3       1 <0>        -0.1414
      2 C2          0.0021   -0.0041    0.0020 C.cat     1 <0>         0.5172
      3 N1         -1.0540   -0.7406    0.0030 N.pl3     1 <0>        -0.6207
      4 C3         -0.6463   -2.1509   -0.0075 C.3       1 <0>         0.2612
      5 H1         -1.0120   -2.6568    0.8861 H         1 <0>         0.1753
      6 O1          0.7898   -2.1285   -0.0147 O.3       1 <0>        -0.1006
      7 N2          1.1420   -0.7539   -0.0134 N.pl3     1 <0>        -0.5016
      8 C4         -1.1745   -2.8466   -1.2636 C.3       1 <0>         0.0264
      9 O2         -0.6473   -2.1998   -2.4237 O.3       1 <0>        -0.3540
     10 C5         -1.0163   -2.6922   -3.6166 C.2       1 <0>         0.4671
     11 O3         -1.7623   -3.6409   -3.6740 O.2       1 <0>        -0.4790
     12 C6         -0.5003   -2.0616   -4.8844 C.3       1 <0>         0.1686
     13 H2          0.5881   -2.1183   -4.9014 H         1 <0>         0.1310
     14 C7         -0.9355   -0.5959   -4.9388 C.3       1 <0>        -0.0409
     15 C8         -0.3181    0.0671   -6.1430 C.2       1 <0>        -0.1760
     16 C9         -0.8483    0.0612   -7.5086 C.ar      1 <0>        -0.0807
     17 C10        -1.9800   -0.4947   -8.1076 C.ar      1 <0>        -0.0823
     18 C11        -2.1977   -0.3143   -9.4447 C.ar      1 <0>        -0.1352
     19 C12        -1.3021    0.4169  -10.2124 C.ar      1 <0>        -0.0982
     20 C13        -0.1787    0.9743   -9.6415 C.ar      1 <0>        -0.1253
     21 C14         0.0625    0.8038   -8.2824 C.ar      1 <0>         0.1055
     22 N3          1.0656    1.2232   -7.4376 N.pl3     1 <0>        -0.5894
     23 C15         0.8191    0.7801   -6.1667 C.2       1 <0>         0.0739
     24 N4         -1.0447   -2.7760   -6.0418 N.am      1 <0>        -0.7211
     25 C16        -0.3843   -2.7578   -7.2165 C.2       1 <0>         0.5771
     26 O4          0.6631   -2.1487   -7.3157 O.2       1 <0>        -0.5048
     27 C17        -0.9332   -3.4782   -8.3836 C.ar      1 <0>        -0.1436
     28 C18        -2.1391   -4.1739   -8.2740 C.ar      1 <0>        -0.0588
     29 C19        -2.6468   -4.8444   -9.3660 C.ar      1 <0>        -0.1600
     30 C20        -1.9622   -4.8292  -10.5717 C.ar      1 <0>         0.1317
     31 C21        -0.7646   -4.1400  -10.6861 C.ar      1 <0>        -0.1591
     32 C22        -0.2511   -3.4610   -9.6020 C.ar      1 <0>        -0.0213
     33 F1         -2.4638   -5.4888  -11.6388 F         1 <0>        -0.1303
     34 H3          1.0042    1.8801    0.0026 H         1 <0>         0.1272
     35 H4         -0.5455    1.8639   -0.8728 H         1 <0>         0.1416
     36 H5         -0.5286    1.8543    0.9071 H         1 <0>         0.1409
     37 H6          2.0466   -0.4039   -0.0200 H         1 <0>         0.4899
     38 H7         -0.8644   -3.8916   -1.2578 H         1 <0>         0.1186
     39 H8         -2.2629   -2.7907   -1.2795 H         1 <0>         0.1137
     40 H9         -2.0218   -0.5419   -5.0113 H         1 <0>         0.0794
     41 H10        -0.6060   -0.0852   -4.0340 H         1 <0>         0.0820
     42 H11        -2.6809   -1.0656   -7.5166 H         1 <0>         0.1104
     43 H12        -3.0734   -0.7446   -9.9077 H         1 <0>         0.1186
     44 H13        -1.4874    0.5502  -11.2680 H         1 <0>         0.1244
     45 H14         0.5124    1.5414  -10.2475 H         1 <0>         0.1187
     46 H15         1.4478    0.9729   -5.3100 H         1 <0>         0.1613
     47 H16         1.8309    1.7568   -7.7030 H         1 <0>         0.4163
     48 H17        -1.8804   -3.2620   -5.9626 H         1 <0>         0.4078
     49 H18        -2.6727   -4.1870   -7.3351 H         1 <0>         0.1326
     50 H19        -3.5793   -5.3828   -9.2823 H         1 <0>         0.1436
     51 H20        -0.2352   -4.1317  -11.6274 H         1 <0>         0.1445
     52 H21         0.6795   -2.9205   -9.6935 H         1 <0>         0.1434
     53 H22        -1.9684   -0.4170    0.0101 H         1 <0>         0.4743
@<TRIPOS>BOND
     1    1    2 1
     2    1   34 1
     3    1   35 1
     4    1   36 1
     5    2    7 1
     6    2    3 2
     7    3    4 1
     8    3   53 1
     9    4    5 1
    10    4    6 1
    11    4    8 1
    12    6    7 1
    13    7   37 1
    14    8    9 1
    15    8   38 1
    16    8   39 1
    17    9   10 1
    18   10   11 2
    19   10   12 1
    20   12   13 1
    21   12   14 1
    22   12   24 1
    23   14   40 1
    24   14   41 1
    25   14   15 1
    26   15   16 1
    27   15   23 2
    28   16   17 ar
    29   16   21 ar
    30   17   18 ar
    31   17   42 1
    32   18   19 ar
    33   18   43 1
    34   19   20 ar
    35   19   44 1
    36   20   21 ar
    37   20   45 1
    38   21   22 1
    39   22   47 1
    40   22   23 1
    41   23   46 1
    42   24   25 am
    43   24   48 1
    44   25   26 2
    45   25   27 1
    46   27   32 ar
    47   27   28 ar
    48   28   29 ar
    49   28   49 1
    50   29   30 ar
    51   29   50 1
    52   30   31 ar
    53   30   33 1
    54   31   32 ar
    55   31   51 1
    56   32   52 1
@<TRIPOS>MOLECULE
ZINC49116140
   64    67     0     0     0
SMALL
USER_CHARGES

@<TRIPOS>ATOM
      1 C1          1.2956    0.4347   -0.3548 C.3       1 <0>        -0.1535
      2 C2          0.8480   -1.0270   -0.4178 C.3       1 <0>         0.0598
      3 O1         -0.5518   -1.1088   -0.1422 O.3       1 <0>        -0.3817
      4 C3         -1.0742   -2.4385   -0.1761 C.3       1 <0>         0.0432
      5 C4         -2.5726   -2.4058    0.1315 C.3       1 <0>         0.1363
      6 N1         -3.1081   -3.7690    0.0967 N.pl3     1 <0>        -0.3736
      7 C5         -3.5368   -4.4382   -1.0195 C.ar      1 <0>        -0.0566
      8 C6         -3.9658   -5.7068   -0.5921 C.ar      1 <0>         0.1427
      9 C7         -3.7739   -5.7552    0.8052 C.2       1 <0>         0.0938
     10 N2         -3.2665   -4.6204    1.1982 N.2       1 <0>        -0.2031
     11 C8         -4.0962   -6.9278    1.6953 C.3       1 <0>        -0.0713
     12 N3         -4.4380   -6.5698   -1.5019 N.ar      1 <0>        -0.5422
     13 C9         -4.4983   -6.2324   -2.7764 C.ar      1 <0>         0.5764
     14 N4         -4.1022   -5.0436   -3.2165 N.ar      1 <0>        -0.5773
     15 C10        -3.6214   -4.1279   -2.3841 C.ar      1 <0>         0.4940
     16 N5         -3.2113   -2.8908   -2.8545 N.pl3     1 <0>        -0.6304
     17 C11        -3.4262   -2.5462   -4.1857 C.ar      1 <0>         0.3574
     18 C12        -3.5892   -3.5463   -5.1389 C.ar      1 <0>        -0.1926
     19 C13        -3.8022   -3.1897   -6.4583 C.ar      1 <0>        -0.0325
     20 C14        -3.8452   -1.8398   -6.7812 C.ar      1 <0>        -0.1951
     21 C15        -3.6755   -0.9003   -5.7841 C.ar      1 <0>         0.1349
     22 N6         -3.4792   -1.2697   -4.5326 N.ar      1 <0>        -0.5168
     23 C16        -3.9829   -4.2425   -7.5213 C.3       1 <0>        -0.1129
     24 N7         -4.9923   -7.1519   -3.6884 N.pl3     1 <0>        -0.5902
     25 C17        -5.5716   -8.4224   -3.2313 C.3       1 <0>         0.1294
     26 C18        -4.8700   -9.5740   -3.9581 C.3       1 <0>        -0.1275
     27 C19        -4.9610   -9.3492   -5.4691 C.3       1 <0>        -0.1168
     28 C20        -4.2523   -8.0433   -5.8359 C.3       1 <0>        -0.1489
     29 C21        -4.9520   -6.8719   -5.1301 C.3       1 <0>         0.1234
     30 C22        -4.2914  -10.5151   -6.1992 C.3       1 <0>        -0.0059
     31 N8         -4.4828  -10.3608   -7.6475 N.4       1 <0>        -0.6392
     32 H1          2.3633    0.4970   -0.5650 H         1 <0>         0.0756
     33 H2          0.7451    1.0155   -1.0949 H         1 <0>         0.0655
     34 H3          1.0973    0.8328    0.6403 H         1 <0>         0.0669
     35 H4          1.0462   -1.4252   -1.4129 H         1 <0>         0.0493
     36 H5          1.3985   -1.6078    0.3223 H         1 <0>         0.0532
     37 H6         -0.9158   -2.8660   -1.1662 H         1 <0>         0.0481
     38 H7         -0.5635   -3.0486    0.5690 H         1 <0>         0.0668
     39 H8         -2.7310   -1.9784    1.1216 H         1 <0>         0.1220
     40 H9         -3.0832   -1.7957   -0.6136 H         1 <0>         0.0969
     41 H10        -3.2256   -7.5798    1.7668 H         1 <0>         0.0841
     42 H11        -4.3628   -6.5673    2.6888 H         1 <0>         0.0826
     43 H12        -4.9334   -7.4844    1.2740 H         1 <0>         0.0869
     44 H13        -2.7743   -2.2649   -2.2560 H         1 <0>         0.4239
     45 H14        -3.5496   -4.5869   -4.8527 H         1 <0>         0.1807
     46 H15        -4.0094   -1.5281   -7.8022 H         1 <0>         0.1371
     47 H16        -3.7082    0.1506   -6.0307 H         1 <0>         0.1634
     48 H17        -5.0407   -4.4893   -7.6121 H         1 <0>         0.0760
     49 H18        -3.6153   -3.8629   -8.4747 H         1 <0>         0.0745
     50 H19        -3.4235   -5.1365   -7.2461 H         1 <0>         0.0649
     51 H20        -5.4246   -8.5252   -2.1562 H         1 <0>         0.1118
     52 H21        -6.6372   -8.4412   -3.4599 H         1 <0>         0.0684
     53 H22        -3.8227   -9.6092   -3.6580 H         1 <0>         0.0802
     54 H23        -5.3546  -10.5157   -3.7005 H         1 <0>         0.0890
     55 H24        -6.0085   -9.2893   -5.7649 H         1 <0>         0.0990
     56 H25        -3.2108   -8.0930   -5.5181 H         1 <0>         0.0845
     57 H26        -4.2973   -7.8956   -6.9149 H         1 <0>         0.0700
     58 H27        -5.9681   -6.7670   -5.5105 H         1 <0>         0.0701
     59 H28        -4.3961   -5.9514   -5.3083 H         1 <0>         0.1065
     60 H29        -3.2253  -10.5216   -5.9723 H         1 <0>         0.1344
     61 H30        -4.7383  -11.4537   -5.8716 H         1 <0>         0.1376
     62 H31        -4.0412  -11.1297   -8.1289 H         1 <0>         0.4390
     63 H32        -5.4697  -10.3547   -7.8575 H         1 <0>         0.4356
     64 H33        -4.0691   -9.4919   -7.9507 H         1 <0>         0.4324
@<TRIPOS>BOND
     1    1    2 1
     2    1   32 1
     3    1   33 1
     4    1   34 1
     5    2    3 1
     6    2   35 1
     7    2   36 1
     8    3    4 1
     9    4    5 1
    10    4   37 1
    11    4   38 1
    12    5    6 1
    13    5   39 1
    14    5   40 1
    15    6   10 1
    16    6    7 1
    17    7   15 ar
    18    7    8 ar
    19    8    9 1
    20    8   12 ar
    21    9   10 2
    22    9   11 1
    23   11   41 1
    24   11   42 1
    25   11   43 1
    26   12   13 ar
    27   13   14 ar
    28   13   24 1
    29   14   15 ar
    30   15   16 1
    31   16   17 1
    32   16   44 1
    33   17   22 ar
    34   17   18 ar
    35   18   19 ar
    36   18   45 1
    37   19   20 ar
    38   19   23 1
    39   20   21 ar
    40   20   46 1
    41   21   22 ar
    42   21   47 1
    43   23   48 1
    44   23   49 1
    45   23   50 1
    46   24   29 1
    47   24   25 1
    48   25   26 1
    49   25   51 1
    50   25   52 1
    51   26   27 1
    52   26   53 1
    53   26   54 1
    54   27   28 1
    55   27   30 1
    56   27   55 1
    57   28   29 1
    58   28   56 1
    59   28   57 1
    60   29   58 1
    61   29   59 1
    62   30   31 1
    63   30   60 1
    64   30   61 1
    65   31   62 1
    66   31   63 1
    67   31   64 1
@<TRIPOS>MOLECULE
ZINC63389835
   60    63     0     0     0
SMALL
USER_CHARGES

@<TRIPOS>ATOM
      1 C1         -1.1529    1.4870   -1.7452 C.3       1 <0>        -0.1725
      2 C2         -1.1198   -0.0197   -1.7438 C.2       1 <0>         0.5108
      3 O1         -2.0289   -0.6467   -2.2453 O.2       1 <0>        -0.5260
      4 N1         -0.0801   -0.6704   -1.1851 N.am      1 <0>        -0.6755
      5 C3         -0.0947   -2.0682   -1.0965 C.ar      1 <0>         0.1311
      6 C4          0.4698   -2.7001    0.0038 C.ar      1 <0>        -0.1255
      7 C5          0.4554   -4.0777    0.0911 C.ar      1 <0>        -0.1233
      8 C6         -0.1235   -4.8317   -0.9213 C.ar      1 <0>         0.1226
      9 C7         -0.6880   -4.1998   -2.0215 C.ar      1 <0>        -0.1003
     10 C8         -0.6786   -2.8219   -2.1062 C.ar      1 <0>        -0.1030
     11 N2         -0.1377   -6.2295   -0.8328 N.am      1 <0>        -0.6716
     12 C9         -0.0084   -6.9766   -1.9472 C.2       1 <0>         0.5132
     13 O2          0.0354   -6.4411   -3.0346 O.2       1 <0>        -0.5208
     14 C10         0.0816   -8.4772   -1.8420 C.3       1 <0>        -0.1370
     15 C11         0.2220   -9.0790   -3.2417 C.3       1 <0>        -0.1179
     16 C12         0.3135  -10.6025   -3.1349 C.3       1 <0>         0.1320
     17 N3          0.4479  -11.1788   -4.4751 N.am      1 <0>        -0.7366
     18 C13         0.5459  -12.5143   -4.6277 C.2       1 <0>         0.7087
     19 O3          0.4277  -13.2465   -3.6643 O.2       1 <0>        -0.5685
     20 N4          0.7748  -13.0381   -5.8482 N.am      1 <0>        -0.6342
     21 C14         1.0392  -12.1466   -6.9823 C.3       1 <0>         0.1071
     22 C15         0.0031  -12.4068   -8.0912 C.3       1 <0>        -0.1034
     23 C16        -0.0998  -13.9041   -8.2442 C.2       1 <0>         0.0604
     24 C17        -0.0074  -14.6858   -9.3130 C.ar      1 <0>        -0.1635
     25 C18         0.1189  -14.3749  -10.7461 C.ar      1 <0>         0.0001
     26 C19         0.2111  -15.4406  -11.5848 C.ar      1 <0>        -0.1593
     27 C20         0.1907  -16.7684  -11.1466 C.ar      1 <0>         0.0550
     28 C21         0.0693  -17.1461   -9.8490 C.ar      1 <0>        -0.2082
     29 C22        -0.0439  -16.1138   -8.8730 C.ar      1 <0>         0.3336
     30 N5         -0.1927  -16.1881   -7.5833 N.pl3     1 <0>        -0.5739
     31 C23        -0.3302  -14.8302   -7.0556 C.3       1 <0>         0.0700
     32 H1         -1.3267  -14.6803   -6.6400 H         1 <0>         0.1765
     33 C24         0.7628  -14.4986   -6.0274 C.3       1 <0>         0.1388
     34 H2         -1.6520    1.8403   -0.8430 H         1 <0>         0.0996
     35 H3         -0.1337    1.8727   -1.7714 H         1 <0>         0.0838
     36 H4         -1.6967    1.8376   -2.6224 H         1 <0>         0.0987
     37 H5          0.6783   -0.1707   -0.8444 H         1 <0>         0.4128
     38 H6          0.9203   -2.1138    0.7910 H         1 <0>         0.1317
     39 H7          0.8947   -4.5692    0.9466 H         1 <0>         0.1307
     40 H8         -1.1378   -4.7861   -2.8091 H         1 <0>         0.1410
     41 H9         -1.1219   -2.3303   -2.9595 H         1 <0>         0.1424
     42 H10        -0.2405   -6.6599    0.0304 H         1 <0>         0.4124
     43 H11         0.9500   -8.7479   -1.2414 H         1 <0>         0.1036
     44 H12        -0.8216   -8.8632   -1.3695 H         1 <0>         0.1032
     45 H13        -0.6463   -8.8083   -3.8423 H         1 <0>         0.0806
     46 H14         1.1253   -8.6930   -3.7142 H         1 <0>         0.0808
     47 H15         1.1818  -10.8732   -2.5343 H         1 <0>         0.0740
     48 H16        -0.5898  -10.9885   -2.6624 H         1 <0>         0.0752
     49 H17         0.4664  -10.5991   -5.2527 H         1 <0>         0.3994
     50 H18         0.9673  -11.1098   -6.6539 H         1 <0>         0.1101
     51 H19         2.0405  -12.3371   -7.3685 H         1 <0>         0.0935
     52 H20        -0.9636  -11.9940   -7.8029 H         1 <0>         0.1268
     53 H21         0.3375  -11.9583   -9.0267 H         1 <0>         0.1246
     54 H22         0.1369  -13.3584  -11.1104 H         1 <0>         0.1696
     55 H23         0.3045  -15.2522  -12.6441 H         1 <0>         0.1550
     56 H24         0.2771  -17.5458  -11.8913 H         1 <0>         0.1579
     57 H25         0.0585  -18.1885   -9.5668 H         1 <0>         0.1689
     58 H26         1.7328  -14.8334   -6.3951 H         1 <0>         0.0959
     59 H27         0.5390  -14.9852   -5.0781 H         1 <0>         0.1321
     60 H28        -0.2096  -17.0047   -7.0600 H         1 <0>         0.4567
@<TRIPOS>BOND
     1    1    2 1
     2    1   34 1
     3    1   35 1
     4    1   36 1
     5    2    3 2
     6    2    4 am
     7    4    5 1
     8    4   37 1
     9    5   10 ar
    10    5    6 ar
    11    6    7 ar
    12    6   38 1
    13    7    8 ar
    14    7   39 1
    15    8    9 ar
    16    8   11 1
    17    9   10 ar
    18    9   40 1
    19   10   41 1
    20   11   12 am
    21   11   42 1
    22   12   13 2
    23   12   14 1
    24   14   15 1
    25   14   43 1
    26   14   44 1
    27   15   16 1
    28   15   45 1
    29   15   46 1
    30   16   17 1
    31   16   47 1
    32   16   48 1
    33   17   18 am
    34   17   49 1
    35   18   19 2
    36   18   20 am
    37   20   33 1
    38   20   21 1
    39   21   22 1
    40   21   50 1
    41   21   51 1
    42   22   23 1
    43   22   52 1
    44   22   53 1
    45   23   31 1
    46   23   24 2
    47   24   29 ar
    48   24   25 ar
    49   25   26 ar
    50   25   54 1
    51   26   27 ar
    52   26   55 1
    53   27   28 ar
    54   27   56 1
    55   28   29 ar
    56   28   57 1
    57   29   30 2
    58   30   31 1
    59   30   60 1
    60   31   32 1
    61   31   33 1
    62   33   58 1
    63   33   59 1
@<TRIPOS>MOLECULE
ZINC14359640
   59    61     0     0     0
SMALL
USER_CHARGES

@<TRIPOS>ATOM
      1 C1         -4.7898  -12.6524    3.9627 C.3       1 <0>        -0.1324
      2 C2         -3.9226  -11.6471    3.2497 C.ar      1 <0>        -0.0395
      3 C3         -3.3310  -10.6185    3.9587 C.ar      1 <0>        -0.1193
      4 C4         -2.5356   -9.6963    3.3047 C.ar      1 <0>        -0.0844
      5 C5         -2.3313   -9.8031    1.9417 C.ar      1 <0>        -0.1799
      6 C6         -2.9221  -10.8323    1.2328 C.ar      1 <0>        -0.0842
      7 C7         -3.7141  -11.7570    1.8875 C.ar      1 <0>        -0.1191
      8 C8         -1.4649   -8.7973    1.2285 C.3       1 <0>         0.0496
      9 N1         -0.0724   -9.2652    1.2256 N.4       1 <0>        -0.4973
     10 C9          0.7722   -8.2847    0.5304 C.3       1 <0>        -0.0265
     11 C10         2.2007   -8.7647    0.5274 C.2       1 <0>         0.4952
     12 O1          2.4870   -9.8197    1.0526 O.2       1 <0>        -0.5070
     13 N2          3.1601   -8.0216   -0.0590 N.am      1 <0>        -0.6444
     14 C11         4.4995   -8.4182    0.0217 C.ar      1 <0>         0.0974
     15 C12         5.5032   -7.4634    0.1227 C.ar      1 <0>        -0.0739
     16 C13         6.8241   -7.8581    0.2022 C.ar      1 <0>        -0.1157
     17 C14         7.1481   -9.2024    0.1808 C.ar      1 <0>        -0.0146
     18 C15         6.1514  -10.1553    0.0798 C.ar      1 <0>        -0.6292
     19 C16         4.8277   -9.7673    0.0067 C.ar      1 <0>        -0.0149
     20 S1          6.5696  -11.8668    0.0524 S.o2      1 <0>         2.6325
     21 O2          5.4976  -12.5364   -0.5969 O.2       1 <0>        -0.9758
     22 O3          7.9109  -11.9497   -0.4094 O.2       1 <0>        -0.9573
     23 N3          6.5759  -12.3945    1.6220 N.2       1 <0>        -0.9557
     24 C17         6.8553  -13.6288    1.8881 C.2       1 <0>         0.5862
     25 N4          7.1623  -14.5402    0.8661 N.pl3     1 <0>        -0.8246
     26 C18         8.5101  -15.0258    0.8050 C.3       1 <0>         0.1246
     27 C19         8.8076  -16.2838    1.6378 C.3       1 <0>        -0.1435
     28 C20         8.1115  -16.1953    3.0193 C.3       1 <0>        -0.1264
     29 C21         8.1769  -14.8199    3.6223 C.3       1 <0>        -0.1091
     30 C22         6.8680  -14.1168    3.2512 C.3       1 <0>        -0.1195
     31 H1         -4.1743  -13.4830    4.3082 H         1 <0>         0.0836
     32 H2         -5.2705  -12.1763    4.8173 H         1 <0>         0.0769
     33 H3         -5.5519  -13.0251    3.2783 H         1 <0>         0.0769
     34 H4         -3.4906  -10.5350    5.0236 H         1 <0>         0.1363
     35 H5         -2.0739   -8.8922    3.8585 H         1 <0>         0.1320
     36 H6         -2.7628  -10.9156    0.1679 H         1 <0>         0.1322
     37 H7         -4.1727  -12.5632    1.3343 H         1 <0>         0.1364
     38 H8         -1.8117   -8.6823    0.2016 H         1 <0>         0.1408
     39 H9         -1.5246   -7.8375    1.7418 H         1 <0>         0.1408
     40 H10         0.2487   -9.3716    2.1762 H         1 <0>         0.4354
     41 H11         0.4254   -8.1697   -0.4965 H         1 <0>         0.1670
     42 H12         0.7125   -7.3249    1.0437 H         1 <0>         0.1675
     43 H13         2.9220   -7.2118   -0.5370 H         1 <0>         0.4231
     44 H14         5.2508   -6.4134    0.1388 H         1 <0>         0.1417
     45 H15         7.6049   -7.1161    0.2808 H         1 <0>         0.1484
     46 H16         8.1820   -9.5085    0.2427 H         1 <0>         0.1491
     47 H17         4.0493  -10.5122   -0.0669 H         1 <0>         0.1541
     48 H18         8.7470  -15.2429   -0.2365 H         1 <0>         0.0820
     49 H19         9.1745  -14.2298    1.1413 H         1 <0>         0.0696
     50 H20         8.4428  -17.1626    1.1061 H         1 <0>         0.0697
     51 H21         9.8842  -16.3745    1.7819 H         1 <0>         0.0785
     52 H22         7.0652  -16.4785    2.9039 H         1 <0>         0.0649
     53 H23         8.5904  -16.8997    3.6994 H         1 <0>         0.0673
     54 H24         8.2691  -14.8910    4.7061 H         1 <0>         0.0888
     55 H25         9.0231  -14.2707    3.2094 H         1 <0>         0.0754
     56 H26         6.7184  -13.2752    3.9276 H         1 <0>         0.1041
     57 H27         6.0455  -14.8202    3.3808 H         1 <0>         0.1139
     58 H28         6.4913  -14.8296    0.2283 H         1 <0>         0.4170
     59 H29        -0.0171  -10.1536    0.7504 H         1 <0>         0.4357
@<TRIPOS>BOND
     1    1    2 1
     2    1   31 1
     3    1   32 1
     4    1   33 1
     5    2    7 ar
     6    2    3 ar
     7    3    4 ar
     8    3   34 1
     9    4    5 ar
    10    4   35 1
    11    5    6 ar
    12    5    8 1
    13    6    7 ar
    14    6   36 1
    15    7   37 1
    16    8    9 1
    17    8   38 1
    18    8   39 1
    19    9   10 1
    20    9   40 1
    21    9   59 1
    22   10   11 1
    23   10   41 1
    24   10   42 1
    25   11   12 2
    26   11   13 am
    27   13   14 1
    28   13   43 1
    29   14   19 ar
    30   14   15 ar
    31   15   16 ar
    32   15   44 1
    33   16   17 ar
    34   16   45 1
    35   17   18 ar
    36   17   46 1
    37   18   19 ar
    38   18   20 1
    39   19   47 1
    40   20   21 2
    41   20   22 2
    42   20   23 1
    43   23   24 2
    44   24   30 1
    45   24   25 1
    46   25   26 1
    47   25   58 1
    48   26   27 1
    49   26   48 1
    50   26   49 1
    51   27   28 1
    52   27   50 1
    53   27   51 1
    54   28   29 1
    55   28   52 1
    56   28   53 1
    57   29   30 1
    58   29   54 1
    59   29   55 1
    60   30   56 1
    61   30   57 1
@<TRIPOS>MOLECULE
ZINC09115355
   61    64     0     0     0
SMALL
USER_CHARGES
N-[4-(3-morpholinopropylsulfamoyl)phenyl]-5-phenyl-1H-pyrazole-3-carboxamide
@<TRIPOS>ATOM
      1 C1         -2.5482   -9.9657   -1.3874 C.ar      1 <0>        -0.1071
      2 C2         -1.3172  -10.0108   -0.7578 C.ar      1 <0>        -0.1119
      3 C3         -0.6319   -8.8431   -0.4919 C.ar      1 <0>        -0.1133
      4 C4         -1.1827   -7.6155   -0.8593 C.ar      1 <0>        -0.0333
      5 C5         -2.4267   -7.5762   -1.4892 C.ar      1 <0>        -0.0916
      6 C6         -3.0998   -8.7512   -1.7544 C.ar      1 <0>        -0.1110
      7 C7         -0.4531   -6.3592   -0.5766 C.2       1 <0>         0.0690
      8 C8         -0.8665   -5.0915   -0.8769 C.2       1 <0>        -0.1542
      9 C9          0.1612   -4.2412   -0.4142 C.2       1 <0>        -0.0226
     10 N1          1.0976   -5.0067    0.1111 N.2       1 <0>        -0.2460
     11 N2          0.7612   -6.2439    0.0332 N.pl3     1 <0>        -0.3723
     12 H1          1.3090   -7.0097    0.3701 H         1 <0>         0.4567
     13 C10         0.1859   -2.7672   -0.5070 C.2       1 <0>         0.6126
     14 O1         -0.7425   -2.1750   -1.0223 O.2       1 <0>        -0.4964
     15 N3          1.2375   -2.0789   -0.0205 N.am      1 <0>        -0.6680
     16 C11         1.2126   -0.6806   -0.0079 C.ar      1 <0>         0.2164
     17 C12         0.0133   -0.0076    0.1866 C.ar      1 <0>        -0.1437
     18 C13        -0.0078    1.3732    0.1989 C.ar      1 <0>         0.0057
     19 C14         1.1635    2.0858    0.0179 C.ar      1 <0>        -0.7019
     20 C15         2.3592    1.4188   -0.1761 C.ar      1 <0>        -0.0022
     21 C16         2.3872    0.0380   -0.1895 C.ar      1 <0>        -0.1667
     22 S1          1.1321    3.8474    0.0338 S.o2      1 <0>         2.6966
     23 O2          2.2686    4.2805   -0.7012 O.2       1 <0>        -0.9510
     24 O3         -0.1911    4.2332   -0.3120 O.2       1 <0>        -0.9454
     25 N4          1.3708    4.3273    1.6007 N.pl3     1 <0>        -1.1213
     26 C17         2.6458    4.0483    2.2660 C.3       1 <0>         0.1198
     27 C18         2.7559    4.8973    3.5341 C.3       1 <0>        -0.1606
     28 C19         4.0874    4.6059    4.2290 C.3       1 <0>        -0.0045
     29 C20         4.2837    6.8510    5.1169 C.3       1 <0>        -0.0444
     30 C21         4.3318    7.6657    6.4122 C.3       1 <0>         0.0348
     31 O4          5.4346    7.2225    7.2076 O.3       1 <0>        -0.3564
     32 C22         5.3782    5.8344    7.5475 C.3       1 <0>         0.0341
     33 C23         5.3407    5.0012    6.2637 C.3       1 <0>        -0.0385
     34 H2         -3.0807  -10.8824   -1.5937 H         1 <0>         0.1294
     35 H3         -0.8916  -10.9620   -0.4741 H         1 <0>         0.1299
     36 H4          0.3292   -8.8797   -0.0006 H         1 <0>         0.1181
     37 H5         -2.8602   -6.6285   -1.7724 H         1 <0>         0.1316
     38 H6         -4.0614   -8.7224   -2.2453 H         1 <0>         0.1323
     39 H7         -1.7851   -4.8015   -1.3653 H         1 <0>         0.1700
     40 H8          2.0117   -2.5532    0.3209 H         1 <0>         0.4227
     41 H9         -0.9017   -0.5635    0.3284 H         1 <0>         0.1481
     42 H10        -0.9407    1.8972    0.3457 H         1 <0>         0.1460
     43 H11         3.2722    1.9782   -0.3172 H         1 <0>         0.1439
     44 H12         3.3214   -0.4823   -0.3407 H         1 <0>         0.1397
     45 H13         0.6664    4.7930    2.0779 H         1 <0>         0.4216
     46 H14         2.6940    2.9920    2.5307 H         1 <0>         0.0781
     47 H15         3.4678    4.2921    1.5931 H         1 <0>         0.0927
     48 H16         2.7076    5.9536    3.2694 H         1 <0>         0.0982
     49 H17         1.9338    4.6535    4.2071 H         1 <0>         0.0969
     50 H18         4.1356    3.5497    4.4937 H         1 <0>         0.1361
     51 H19         4.9095    4.8497    3.5560 H         1 <0>         0.1383
     52 H20         5.1887    7.0344    4.5378 H         1 <0>         0.1424
     53 H21         3.4115    7.1460    4.5335 H         1 <0>         0.1421
     54 H22         3.4036    7.5241    6.9659 H         1 <0>         0.0810
     55 H23         4.4564    8.7219    6.1735 H         1 <0>         0.1422
     56 H24         4.4805    5.6396    8.1342 H         1 <0>         0.0810
     57 H25         6.2597    5.5662    8.1299 H         1 <0>         0.1421
     58 H26         5.2401    3.9459    6.5175 H         1 <0>         0.1416
     59 H27         6.2626    5.1550    5.7029 H         1 <0>         0.1415
     60 N5          4.1710    5.4184    5.4620 N.4       1 <0>        -0.3961
     61 H28         3.3181    5.2741    6.0152 H         1 <0>         0.4270
@<TRIPOS>BOND
     1    1    6 ar
     2    1    2 ar
     3    1   34 1
     4    2    3 ar
     5    2   35 1
     6    3    4 ar
     7    3   36 1
     8    4    5 ar
     9    4    7 1
    10    5    6 ar
    11    5   37 1
    12    6   38 1
    13    7   11 1
    14    7    8 2
    15    8    9 1
    16    8   39 1
    17    9   10 2
    18    9   13 1
    19   10   11 1
    20   11   12 1
    21   13   14 2
    22   13   15 am
    23   15   16 1
    24   15   40 1
    25   16   21 ar
    26   16   17 ar
    27   17   18 ar
    28   17   41 1
    29   18   19 ar
    30   18   42 1
    31   19   20 ar
    32   19   22 1
    33   20   21 ar
    34   20   43 1
    35   21   44 1
    36   22   23 2
    37   22   24 2
    38   22   25 1
    39   25   26 1
    40   25   45 1
    41   26   27 1
    42   26   46 1
    43   26   47 1
    44   27   28 1
    45   27   48 1
    46   27   49 1
    47   28   50 1
    48   28   51 1
    49   28   60 1
    50   29   30 1
    51   29   52 1
    52   29   53 1
    53   29   60 1
    54   30   31 1
    55   30   54 1
    56   30   55 1
    57   31   32 1
    58   32   33 1
    59   32   56 1
    60   32   57 1
    61   33   58 1
    62   33   59 1
    63   33   60 1
    64   60   61 1
@<TRIPOS>MOLECULE
ZINC21581026
   58    60     0     0     0
SMALL
USER_CHARGES
N-[2-[(3,4-difluorophenyl)amino]-2-oxo-ethyl]-2-[[2-(2,3-dihydro-1,4-benzodioxin-6-ylamino)-2-oxo-ethyl]-ethyl-amino]acetamide
@<TRIPOS>ATOM
      1 C1          5.1124   -4.5088   -2.1269 C.3       1 <0>        -0.1901
      2 C2          4.1023   -4.6655   -0.9885 C.3       1 <0>        -0.0252
      3 N1          4.6900   -4.1624    0.2603 N.4       1 <0>        -0.3751
      4 C3          5.9219   -4.8901    0.5931 C.3       1 <0>        -0.0348
      5 C4          5.5752   -6.2876    1.0379 C.2       1 <0>         0.5078
      6 O1          4.4254   -6.6709    0.9920 O.2       1 <0>        -0.5276
      7 N2          6.5428   -7.1114    1.4869 N.am      1 <0>        -0.7073
      8 C5          6.2057   -8.4700    1.9193 C.3       1 <0>         0.1005
      9 C6          7.4567   -9.1780    2.3719 C.2       1 <0>         0.5130
     10 O2          8.5247   -8.6042    2.3367 O.2       1 <0>        -0.5184
     11 N3          7.3887  -10.4487    2.8158 N.am      1 <0>        -0.6748
     12 C7          8.5289  -11.0687    3.3414 C.ar      1 <0>         0.1615
     13 C8          8.7348  -12.4277    3.1434 C.ar      1 <0>        -0.1197
     14 C9          9.8628  -13.0373    3.6573 C.ar      1 <0>        -0.1022
     15 C10        10.7831  -12.2973    4.3795 C.ar      1 <0>         0.0609
     16 C11        10.5775  -10.9412    4.5837 C.ar      1 <0>         0.0907
     17 C12         9.4519  -10.3266    4.0656 C.ar      1 <0>        -0.1318
     18 F1         11.4769  -10.2203    5.2883 F         1 <0>        -0.1210
     19 F2         11.8830  -12.8968    4.8854 F         1 <0>        -0.1224
     20 C13         4.9378   -2.7167    0.1804 C.3       1 <0>        -0.0321
     21 C14         3.6233   -1.9862    0.0830 C.2       1 <0>         0.5026
     22 O3          2.5823   -2.6088    0.0803 O.2       1 <0>        -0.5099
     23 N4          3.6043   -0.6413   -0.0012 N.am      1 <0>        -0.6518
     24 C15         2.3837    0.0456    0.0326 C.ar      1 <0>         0.1315
     25 C16         1.2861   -0.5193    0.6683 C.ar      1 <0>        -0.1190
     26 C17         0.0821    0.1569    0.7006 C.ar      1 <0>        -0.0931
     27 C18        -0.0345    1.4015    0.0994 C.ar      1 <0>         0.0511
     28 C19         1.0633    1.9710   -0.5349 C.ar      1 <0>         0.0750
     29 C20         2.2710    1.2910   -0.5689 C.ar      1 <0>        -0.1334
     30 O4          0.9704    3.1951   -1.1229 O.3       1 <0>        -0.3047
     31 C21        -0.3487    3.6804   -1.3950 C.3       1 <0>         0.0169
     32 C22        -1.2113    3.4539   -0.1460 C.3       1 <0>         0.0166
     33 O5         -1.2320    2.0496    0.1345 O.3       1 <0>        -0.3023
     34 H1          4.6723   -4.8855   -3.0620 H         1 <0>         0.1089
     35 H2          6.0212   -5.0823   -1.8922 H         1 <0>         0.0764
     36 H3          5.3698   -3.4459   -2.2449 H         1 <0>         0.0760
     37 H4          3.1935   -4.0920   -1.2232 H         1 <0>         0.1483
     38 H5          3.8448   -5.7284   -0.8705 H         1 <0>         0.1458
     39 H6          6.5705   -4.9380   -0.2940 H         1 <0>         0.1654
     40 H7          6.4488   -4.3671    1.4048 H         1 <0>         0.1639
     41 H8          7.5856   -6.7637    1.5287 H         1 <0>         0.4489
     42 H9          5.4894   -8.4224    2.7527 H         1 <0>         0.1160
     43 H10         5.7558   -9.0209    1.0802 H         1 <0>         0.1144
     44 H11         6.4375  -10.9988    2.7652 H         1 <0>         0.4485
     45 H12         8.0151  -13.0071    2.5843 H         1 <0>         0.1474
     46 H13        10.0246  -14.0934    3.4992 H         1 <0>         0.1559
     47 H14         9.2911   -9.2705    4.2246 H         1 <0>         0.1530
     48 H15         5.4749   -2.3864    1.0818 H         1 <0>         0.1664
     49 H16         5.5459   -2.4975   -0.7097 H         1 <0>         0.1631
     50 H17         4.5472   -0.0828   -0.0965 H         1 <0>         0.4474
     51 H18         1.3738   -1.4881    1.1374 H         1 <0>         0.1494
     52 H19        -0.7706   -0.2847    1.1948 H         1 <0>         0.1436
     53 H20         3.1244    1.7307   -1.0637 H         1 <0>         0.1416
     54 H21        -0.3028    4.7534   -1.6328 H         1 <0>         0.1308
     55 H22        -0.7716    3.1331   -2.2503 H         1 <0>         0.0831
     56 H23        -0.7782    4.0028    0.7032 H         1 <0>         0.0836
     57 H24        -2.2324    3.8169   -0.3348 H         1 <0>         0.1310
     58 H25         3.9654   -4.3370    1.0693 H         1 <0>         0.4598
@<TRIPOS>BOND
     1    1    2 1
     2    1   34 1
     3    1   35 1
     4    1   36 1
     5    2    3 1
     6    2   37 1
     7    2   38 1
     8    3    4 1
     9    3   20 1
    10    3   58 1
    11    4    5 1
    12    4   39 1
    13    4   40 1
    14    5    6 2
    15    5    7 am
    16    7    8 1
    17    7   41 1
    18    8    9 1
    19    8   42 1
    20    8   43 1
    21    9   10 2
    22    9   11 am
    23   11   12 1
    24   11   44 1
    25   12   17 ar
    26   12   13 ar
    27   13   14 ar
    28   13   45 1
    29   14   15 ar
    30   14   46 1
    31   15   16 ar
    32   15   19 1
    33   16   17 ar
    34   16   18 1
    35   17   47 1
    36   20   21 1
    37   20   48 1
    38   20   49 1
    39   21   22 2
    40   21   23 am
    41   23   24 1
    42   23   50 1
    43   24   29 ar
    44   24   25 ar
    45   25   26 ar
    46   25   51 1
    47   26   27 ar
    48   26   52 1
    49   27   33 1
    50   27   28 ar
    51   28   29 ar
    52   28   30 1
    53   29   53 1
    54   30   31 1
    55   31   32 1
    56   31   54 1
    57   31   55 1
    58   32   33 1
    59   32   56 1
    60   32   57 1
@<TRIPOS>MOLECULE
ZINC39462121
   58    60     0     0     0
SMALL
USER_CHARGES

@<TRIPOS>ATOM
      1 C1          0.2363    1.5905   -0.0105 C.3       1 <0>        -0.1545
      2 C2          0.2032    0.0615   -0.0544 C.3       1 <0>        -0.1469
      3 C3          0.7768   -0.4987    1.2487 C.3       1 <0>        -0.0250
      4 N1          0.6284   -1.9602    1.2607 N.4       1 <0>        -0.3577
      5 C4          1.4574   -2.5453    0.1984 C.3       1 <0>        -0.0345
      6 C5          1.1697   -4.0207    0.0919 C.2       1 <0>         0.5023
      7 O1          0.4003   -4.5462    0.8685 O.2       1 <0>        -0.5027
      8 N2          1.7674   -4.7564   -0.8662 N.am      1 <0>        -0.6421
      9 C6          1.4311   -6.1064   -1.0242 C.ar      1 <0>         0.1375
     10 C7          0.1380   -6.5367   -0.7591 C.ar      1 <0>        -0.0906
     11 C8         -0.1913   -7.8689   -0.9156 C.ar      1 <0>        -0.0832
     12 C9          0.7663   -8.7753   -1.3360 C.ar      1 <0>        -0.0258
     13 C10         2.0559   -8.3501   -1.6012 C.ar      1 <0>        -0.0811
     14 C11         2.3895   -7.0170   -1.4521 C.ar      1 <0>        -0.0433
     15 Cl1         4.0058   -6.4823   -1.7917 Cl        1 <0>        -0.0414
     16 Cl2         0.3487  -10.4491   -1.5305 Cl        1 <0>        -0.0368
     17 C12         1.0591   -2.4854    2.5632 C.3       1 <0>        -0.0428
     18 C13         0.1321   -1.9817    3.6393 C.2       1 <0>         0.5246
     19 O2         -0.7959   -1.2566    3.3497 O.2       1 <0>        -0.5205
     20 N3          0.3343   -2.3370    4.9236 N.am      1 <0>        -0.6857
     21 C14        -0.5668   -1.8474    5.9697 C.3       1 <0>         0.3718
     22 H1         -1.5370   -1.5951    5.5416 H         1 <0>         0.1302
     23 C15        -0.7290   -2.8897    7.0452 C.2       1 <0>        -0.2422
     24 H2         -1.1732   -5.8915    8.2123 H         1 <0>         0.4502
     25 C16        -0.6543   -2.2557    8.2538 C.2       1 <0>        -0.0340
     26 C17        -0.7788   -3.0216    9.4188 C.2       1 <0>         0.0865
     27 N4         -0.9624   -4.3124    9.3367 N.2       1 <0>        -0.1912
     28 N5         -1.0361   -4.9312    8.2140 N.am      1 <0>        -0.4361
     29 C18        -0.9265   -4.2813    7.0366 C.2       1 <0>         0.5092
     30 O3         -0.9997   -4.8913    5.9819 O.2       1 <0>        -0.5213
     31 C19        -0.7015   -2.3565   10.7690 C.3       1 <0>        -0.0961
     32 C20        -0.4422   -0.7875    7.9857 C.3       1 <0>         0.1169
     33 H3          0.3179   -0.3889    8.6577 H         1 <0>         0.1306
     34 O4          0.0048   -0.6947    6.6182 O.3       1 <0>        -0.3500
     35 C21        -1.7558   -0.0237    8.1641 C.3       1 <0>        -0.1698
     36 H4          1.2658    1.9283    0.1082 H         1 <0>         0.0670
     37 H5         -0.1723    1.9896   -0.9388 H         1 <0>         0.0780
     38 H6         -0.3609    1.9428    0.8305 H         1 <0>         0.0696
     39 H7         -0.8263   -0.2764   -0.1731 H         1 <0>         0.0883
     40 H8          0.8005   -0.2909   -0.8954 H         1 <0>         0.0834
     41 H9          1.8332   -0.2402    1.3214 H         1 <0>         0.1321
     42 H10         0.2392   -0.0720    2.0954 H         1 <0>         0.1548
     43 H11         1.2273   -2.0608   -0.7505 H         1 <0>         0.1729
     44 H12         2.5108   -2.3967    0.4362 H         1 <0>         0.1696
     45 H13         2.4305   -4.3506   -1.4463 H         1 <0>         0.4236
     46 H14        -0.6099   -5.8303   -0.4303 H         1 <0>         0.1538
     47 H15        -1.1972   -8.2036   -0.7094 H         1 <0>         0.1510
     48 H16         2.8014   -9.0595   -1.9287 H         1 <0>         0.1562
     49 H17         1.0333   -3.5749    2.5422 H         1 <0>         0.1766
     50 H18         2.0749   -2.1499    2.7724 H         1 <0>         0.1621
     51 H19         1.0766   -2.9170    5.1552 H         1 <0>         0.4146
     52 H20        -1.7002   -2.0510   11.0812 H         1 <0>         0.0912
     53 H21        -0.2920   -3.0574   11.4963 H         1 <0>         0.0907
     54 H22        -0.0566   -1.4801   10.7059 H         1 <0>         0.0870
     55 H23        -2.1149   -0.1520    9.1852 H         1 <0>         0.0846
     56 H24        -1.5898    1.0355    7.9677 H         1 <0>         0.0862
     57 H25        -2.4986   -0.4105    7.4664 H         1 <0>         0.0647
     58 H26        -0.3387   -2.2013    1.1039 H         1 <0>         0.4375
@<TRIPOS>BOND
     1    1    2 1
     2    1   36 1
     3    1   37 1
     4    1   38 1
     5    2    3 1
     6    2   39 1
     7    2   40 1
     8    3    4 1
     9    3   41 1
    10    3   42 1
    11    4    5 1
    12    4   17 1
    13    4   58 1
    14    5    6 1
    15    5   43 1
    16    5   44 1
    17    6    7 2
    18    6    8 am
    19    8    9 1
    20    8   45 1
    21    9   14 ar
    22    9   10 ar
    23   10   11 ar
    24   10   46 1
    25   11   12 ar
    26   11   47 1
    27   12   13 ar
    28   12   16 1
    29   13   14 ar
    30   13   48 1
    31   14   15 1
    32   17   18 1
    33   17   49 1
    34   17   50 1
    35   18   19 2
    36   18   20 am
    37   20   21 1
    38   20   51 1
    39   21   22 1
    40   21   34 1
    41   21   23 1
    42   23   29 1
    43   23   25 2
    44   24   28 1
    45   25   32 1
    46   25   26 1
    47   26   31 1
    48   26   27 2
    49   27   28 1
    50   28   29 am
    51   29   30 2
    52   31   52 1
    53   31   53 1
    54   31   54 1
    55   32   33 1
    56   32   34 1
    57   32   35 1
    58   35   55 1
    59   35   56 1
    60   35   57 1
@<TRIPOS>MOLECULE
ZINC39695817
   77    81     0     0     0
SMALL
USER_CHARGES

@<TRIPOS>ATOM
      1 C1          8.6749   -7.3296    2.1766 C.3       1 <0>        -0.1183
      2 C2          7.2489   -7.8168    2.1906 C.ar      1 <0>        -0.0550
      3 C3          6.9630   -9.1223    1.8165 C.ar      1 <0>        -0.1212
      4 C4          5.6771   -9.5831    1.8224 C.ar      1 <0>        -0.0600
      5 C5          4.6354   -8.7354    2.2086 C.ar      1 <0>         0.0398
      6 C6          4.9244   -7.4137    2.5879 C.ar      1 <0>         0.0607
      7 C7          6.2380   -6.9644    2.5802 C.ar      1 <0>        -0.1164
      8 N1          3.7125   -6.8360    2.9096 N.pl3     1 <0>        -0.5899
      9 C8          2.7520   -7.7817    2.7260 C.2       1 <0>         0.2612
     10 N2          3.2910   -8.8927    2.3161 N.2       1 <0>        -0.4857
     11 C9          1.2785   -7.5731    2.9634 C.3       1 <0>         0.2284
     12 H1          1.0078   -6.5526    2.6927 H         1 <0>         0.1110
     13 C10         0.9615   -7.8100    4.4413 C.3       1 <0>        -0.1607
     14 N3          0.5135   -8.5153    2.1428 N.am      1 <0>        -0.7116
     15 C11        -0.7525   -8.2232    1.7847 C.2       1 <0>         0.5248
     16 O1         -1.2898   -7.2250    2.2159 O.2       1 <0>        -0.5199
     17 C12        -1.5007   -9.1369    0.8485 C.3       1 <0>        -0.1127
     18 H2         -0.8038   -9.6671    0.1994 H         1 <0>         0.1151
     19 C13        -2.5142   -8.3308    0.0056 C.3       1 <0>         0.0913
     20 N4         -3.6939   -9.2198   -0.1126 N.am      1 <0>        -0.6078
     21 C14        -3.8115   -9.8556    1.2216 C.3       1 <0>         0.1127
     22 C15        -2.3561  -10.1361    1.6454 C.3       1 <0>        -0.0720
     23 C16        -1.9684  -11.5675    1.2866 C.3       1 <0>        -0.1357
     24 C17        -2.7927  -12.5418    2.1328 C.3       1 <0>        -0.0108
     25 N5         -2.5427  -12.2882    3.5569 N.4       1 <0>        -0.5049
     26 C18        -3.0037  -10.9412    3.9143 C.3       1 <0>        -0.0075
     27 C19        -2.1886   -9.8992    3.1431 C.3       1 <0>        -0.1494
     28 C20        -4.4818   -9.4080   -1.1897 C.2       1 <0>         0.6187
     29 O2         -5.4152  -10.1856   -1.1320 O.2       1 <0>        -0.5156
     30 C21        -4.2129   -8.6724   -2.4356 C.2       1 <0>        -0.0464
     31 C22        -3.3386   -7.6125   -2.6023 C.2       1 <0>        -0.1965
     32 C23        -3.4356   -7.2615   -3.9508 C.2       1 <0>         0.0241
     33 N6         -4.3031   -8.0639   -4.5130 N.2       1 <0>        -0.2590
     34 N7         -4.7716   -8.9028   -3.6606 N.pl3     1 <0>        -0.2376
     35 C24        -5.7577   -9.9451   -3.9563 C.3       1 <0>         0.1746
     36 C25        -7.0428   -9.6682   -3.1735 C.3       1 <0>        -0.1744
     37 C26        -6.0640   -9.9470   -5.4553 C.3       1 <0>        -0.1481
     38 C27        -5.1962  -11.3088   -3.5487 C.3       1 <0>        -0.1759
     39 C28        -2.6765   -6.1548   -4.6363 C.3       1 <0>        -0.0720
     40 H3          9.1337   -7.5208    3.1467 H         1 <0>         0.0765
     41 H4          9.2313   -7.8564    1.4014 H         1 <0>         0.0733
     42 H5          8.6911   -6.2592    1.9717 H         1 <0>         0.0696
     43 H6          7.7653   -9.7805    1.5174 H         1 <0>         0.1338
     44 H7          5.4657  -10.6007    1.5287 H         1 <0>         0.1305
     45 H8          6.4664   -5.9507    2.8743 H         1 <0>         0.1268
     46 H9          1.2322   -8.8306    4.7120 H         1 <0>         0.0665
     47 H10         1.5307   -7.1090    5.0519 H         1 <0>         0.0739
     48 H11        -0.1043   -7.6591    4.6130 H         1 <0>         0.0771
     49 H12         0.9182   -9.3492    1.8571 H         1 <0>         0.4143
     50 H13        -2.7843   -7.4070    0.5173 H         1 <0>         0.1050
     51 H14        -2.1016   -8.1139   -0.9797 H         1 <0>         0.1125
     52 H15        -4.2896   -9.1753    1.9264 H         1 <0>         0.0891
     53 H16        -4.3725  -10.7875    1.1508 H         1 <0>         0.0924
     54 H17        -2.1681  -11.7445    0.2297 H         1 <0>         0.1182
     55 H18        -0.9078  -11.7184    1.4874 H         1 <0>         0.0993
     56 H19        -3.8524  -12.4013    1.9195 H         1 <0>         0.1340
     57 H20        -2.5063  -13.5652    1.8905 H         1 <0>         0.1400
     58 H21        -3.0390  -12.9700    4.1107 H         1 <0>         0.4342
     59 H22        -4.0584  -10.8387    3.6590 H         1 <0>         0.1335
     60 H23        -2.8727  -10.7848    4.9850 H         1 <0>         0.1396
     61 H24        -1.1358   -9.9901    3.4105 H         1 <0>         0.0987
     62 H25        -2.5436   -8.9000    3.3954 H         1 <0>         0.1283
     63 H26        -2.7141   -7.1542   -1.8497 H         1 <0>         0.1672
     64 H27        -7.4948   -8.7436   -3.5325 H         1 <0>         0.0571
     65 H28        -7.7405  -10.4932   -3.3169 H         1 <0>         0.0794
     66 H29        -6.8086   -9.5704   -2.1134 H         1 <0>         0.0985
     67 H30        -5.1485  -10.1443   -6.0129 H         1 <0>         0.0682
     68 H31        -6.7977  -10.7225   -5.6752 H         1 <0>         0.0785
     69 H32        -6.4641   -8.9755   -5.7456 H         1 <0>         0.0715
     70 H33        -5.0612  -11.3377   -2.4675 H         1 <0>         0.0958
     71 H34        -5.8915  -12.0926   -3.8492 H         1 <0>         0.0806
     72 H35        -4.2358  -11.4675   -4.0392 H         1 <0>         0.0553
     73 H36        -1.7374   -6.5463   -5.0273 H         1 <0>         0.0758
     74 H37        -3.2745   -5.7582   -5.4568 H         1 <0>         0.0755
     75 H38        -2.4686   -5.3593   -3.9207 H         1 <0>         0.0772
     76 H39        -1.5537  -12.3639    3.7420 H         1 <0>         0.4285
     77 H40         3.5720   -5.9248    3.2109 H         1 <0>         0.4261
@<TRIPOS>BOND
     1    1    2 1
     2    1   40 1
     3    1   41 1
     4    1   42 1
     5    2    7 ar
     6    2    3 ar
     7    3    4 ar
     8    3   43 1
     9    4    5 ar
    10    4   44 1
    11    5   10 1
    12    5    6 ar
    13    6    7 ar
    14    6    8 1
    15    7   45 1
    16    8    9 1
    17    8   77 1
    18    9   10 2
    19    9   11 1
    20   11   12 1
    21   11   13 1
    22   11   14 1
    23   13   46 1
    24   13   47 1
    25   13   48 1
    26   14   15 am
    27   14   49 1
    28   15   16 2
    29   15   17 1
    30   17   18 1
    31   17   22 1
    32   17   19 1
    33   19   20 1
    34   19   50 1
    35   19   51 1
    36   20   21 1
    37   20   28 am
    38   21   22 1
    39   21   52 1
    40   21   53 1
    41   22   27 1
    42   22   23 1
    43   23   24 1
    44   23   54 1
    45   23   55 1
    46   24   25 1
    47   24   56 1
    48   24   57 1
    49   25   26 1
    50   25   58 1
    51   25   76 1
    52   26   27 1
    53   26   59 1
    54   26   60 1
    55   27   61 1
    56   27   62 1
    57   28   29 2
    58   28   30 1
    59   30   34 1
    60   30   31 2
    61   31   32 1
    62   31   63 1
    63   32   33 2
    64   32   39 1
    65   33   34 1
    66   34   35 1
    67   35   36 1
    68   35   37 1
    69   35   38 1
    70   36   64 1
    71   36   65 1
    72   36   66 1
    73   37   67 1
    74   37   68 1
    75   37   69 1
    76   38   70 1
    77   38   71 1
    78   38   72 1
    79   39   73 1
    80   39   74 1
    81   39   75 1
