@<TRIPOS>MOLECULE
3HL5-9JZ
 76 79 0 0 0
SMALL
SF_CHARGES


@<TRIPOS>ATOM
1    O         9.7840   12.4600  -19.7000  O.2        1 SUBUNIT     -0.5317
2    C         8.7630   12.3680  -20.3720  C.2        1 SUBUNIT      0.6321
3    C         8.2410   13.5790  -21.1010  C.3        1 SUBUNIT      0.1783
4    C         8.7570   13.5560  -22.5550  C.3        1 SUBUNIT     -0.0352
5    C        10.2850   13.6620  -22.6990  C.3        1 SUBUNIT     -0.0628
6    C        10.7280   13.5190  -24.1600  C.3        1 SUBUNIT     -0.0619
7    C         9.9800   14.4840  -25.0840  C.3        1 SUBUNIT     -0.0624
8    C         8.4630   14.3590  -24.9150  C.3        1 SUBUNIT     -0.0619
9    C         8.0540   14.5740  -23.4590  C.3        1 SUBUNIT     -0.0628
10   N         8.6620   14.8220  -20.4610  N.am       1 SUBUNIT     -0.5814
11   C         7.8500   15.8680  -20.3170  C.2        1 SUBUNIT      0.6288
12   O         6.6960   15.9000  -20.7290  O.2        1 SUBUNIT     -0.5449
13   C         8.4430   17.0640  -19.6330  C.3        1 SUBUNIT      0.1623
14   C         8.4050   16.8550  -18.1220  C.3        1 SUBUNIT     -0.1168
15   N         7.7540   18.2890  -20.0140  N.4        1 SUBUNIT     -0.3926
16   C         7.9220   18.8070  -21.3610  C.3        1 SUBUNIT      0.0939
17   N         8.0770   11.2240  -20.5180  N.am       1 SUBUNIT     -0.4751
18   C         6.8450   11.0300  -21.2960  C.3        1 SUBUNIT      0.1469
19   C         6.2930    9.7010  -20.8050  C.3        1 SUBUNIT     -0.0745
20   C         7.5310    8.9340  -20.4120  C.3        1 SUBUNIT     -0.0345
21   C         7.2650    7.7770  -19.4560  C.3        1 SUBUNIT     -0.0987
22   C         8.4990    9.9800  -19.8640  C.3        1 SUBUNIT      0.1766
23   C         9.8670    9.4940  -20.2350  C.2        1 SUBUNIT      0.6306
24   O        10.5250    8.9130  -19.3870  O.2        1 SUBUNIT     -0.5407
25   N        10.2880    9.7190  -21.4890  N.am       1 SUBUNIT     -0.5286
26   C        11.5270    9.2650  -21.9680  C.2        1 SUBUNIT      0.1114
27   C        12.6520    9.2010  -21.1370  C.2        1 SUBUNIT     -0.1133
28   C        13.8620    8.7140  -21.6220  C.2        1 SUBUNIT     -0.1020
29   C        13.9600    8.2810  -22.9420  C.2        1 SUBUNIT     -0.1027
30   C        12.8420    8.3280  -23.7700  C.2        1 SUBUNIT     -0.1084
31   C        11.6220    8.8150  -23.2890  C.2        1 SUBUNIT     -0.0634
32   C        10.4640    8.8560  -24.2310  C.2        1 SUBUNIT      0.5371
33   N        10.3960    7.9550  -25.2470  N.2        1 SUBUNIT     -0.5219
34   C         9.3760    7.9750  -26.1190  C.2        1 SUBUNIT      0.1715
35   C         8.3790    8.9380  -25.9920  C.2        1 SUBUNIT     -0.1415
36   C         8.4630    9.8620  -24.9520  C.2        1 SUBUNIT      0.1715
37   N         9.5010    9.8070  -24.1000  N.2        1 SUBUNIT     -0.5219
38   H         7.1472   13.5602  -21.0536  H          1 SUBUNIT      0.0329
39   H         8.4880   12.5544  -22.9063  H          1 SUBUNIT      0.0520
40   H        10.6106   14.6380  -22.3243  H          1 SUBUNIT      0.0569
41   H        10.7537   12.8685  -22.1077  H          1 SUBUNIT      0.0569
42   H        11.8010   13.7273  -24.2262  H          1 SUBUNIT      0.0576
43   H        10.5339   12.4930  -24.4896  H          1 SUBUNIT      0.0576
44   H        10.2813   15.5096  -24.8464  H          1 SUBUNIT      0.0578
45   H        10.2423   14.2573  -26.1227  H          1 SUBUNIT      0.0578
46   H         7.9696   15.1111  -25.5394  H          1 SUBUNIT      0.0576
47   H         8.1485   13.3587  -25.2304  H          1 SUBUNIT      0.0576
48   H         6.9697   14.4518  -23.3671  H          1 SUBUNIT      0.0569
49   H         8.3351   15.5865  -23.1511  H          1 SUBUNIT      0.0569
50   H         9.5957   14.9372  -20.0990  H          1 SUBUNIT      0.3331
51   H         9.4774   17.1916  -19.9688  H          1 SUBUNIT      0.0384
52   H         7.3766   16.7226  -17.7699  H          1 SUBUNIT      0.0585
53   H         8.8327   17.7149  -17.5960  H          1 SUBUNIT      0.0585
54   H         8.9763   15.9663  -17.8343  H          1 SUBUNIT      0.0585
55   H         6.7680   18.1259  -19.8828  H          1 SUBUNIT      0.3107
56   H         8.0629   19.0102  -19.3812  H          1 SUBUNIT      0.3107
57   H         8.9738   19.0317  -21.5667  H          1 SUBUNIT      0.0394
58   H         7.3473   19.7284  -21.5016  H          1 SUBUNIT      0.0394
59   H         7.5811   18.0806  -22.1061  H          1 SUBUNIT      0.0394
60   H         6.1399   11.8451  -21.1022  H          1 SUBUNIT      0.0338
61   H         7.0728   10.9905  -22.3663  H          1 SUBUNIT      0.0338
62   H         5.6321    9.8435  -19.9436  H          1 SUBUNIT      0.0480
63   H         5.7489    9.1826  -21.6014  H          1 SUBUNIT      0.0480
64   H         7.9551    8.4186  -21.2801  H          1 SUBUNIT      0.0449
65   H         6.8152    8.1339  -18.5236  H          1 SUBUNIT      0.0480
66   H         8.1939    7.2552  -19.2034  H          1 SUBUNIT      0.0480
67   H         6.5804    7.0484  -19.9026  H          1 SUBUNIT      0.0480
68   H         8.5116   10.1648  -18.7848  H          1 SUBUNIT      0.0244
69   H         9.6729   10.2380  -22.0959  H          1 SUBUNIT      0.3158
70   H        12.5836    9.5302  -20.1149  H          1 SUBUNIT      0.1031
71   H        14.7219    8.6721  -20.9766  H          1 SUBUNIT      0.1028
72   H        14.8968    7.9113  -23.3208  H          1 SUBUNIT      0.1026
73   H        12.9194    7.9865  -24.7874  H          1 SUBUNIT      0.1025
74   H         9.3458    7.2421  -26.9062  H          1 SUBUNIT      0.0746
75   H         7.5571    8.9680  -26.6858  H          1 SUBUNIT      0.1024
76   H         7.7120   10.6206  -24.8166  H          1 SUBUNIT      0.0746
@<TRIPOS>BOND
     1    1    2 2
     2    2    3 1
     3    2   17 1
     4    3    4 1
     5    3   10 1
     6    4    5 1
     7    4    9 1
     8    5    6 1
     9    6    7 1
    10    7    8 1
    11    8    9 1
    12   10   11 1
    13   11   12 2
    14   11   13 1
    15   13   14 1
    16   13   15 1
    17   15   16 1
    18   17   18 1
    19   17   22 1
    20   18   19 1
    21   19   20 1
    22   20   21 1
    23   20   22 1
    24   22   23 1
    25   23   24 2
    26   23   25 1
    27   25   26 1
    28   26   27 1
    29   26   31 2
    30   27   28 2
    31   28   29 1
    32   29   30 2
    33   30   31 1
    34   31   32 1
    35   32   33 2
    36   32   37 1
    37   33   34 1
    38   34   35 2
    39   35   36 1
    40   36   37 2
    41    3   38 1
    42    4   39 1
    43    5   40 1
    44    5   41 1
    45    6   42 1
    46    6   43 1
    47    7   44 1
    48    7   45 1
    49    8   46 1
    50    8   47 1
    51    9   48 1
    52    9   49 1
    53   10   50 1
    54   13   51 1
    55   14   52 1
    56   14   53 1
    57   14   54 1
    58   15   55 1
    59   15   56 1
    60   16   57 1
    61   16   58 1
    62   16   59 1
    63   18   60 1
    64   18   61 1
    65   19   62 1
    66   19   63 1
    67   20   64 1
    68   21   65 1
    69   21   66 1
    70   21   67 1
    71   22   68 1
    72   25   69 1
    73   27   70 1
    74   28   71 1
    75   29   72 1
    76   30   73 1
    77   34   74 1
    78   35   75 1
    79   36   76 1
